
     RDKit          3D

  0  0  0  0  0  0  0  0  0  0999 V3000
M  V30 BEGIN CTAB
M  V30 COUNTS 3 2 0 0 0
M  V30 BEGIN ATOM
M  V30 1 Ba 1.4750 0.0000 0.0000 0
M  V30 2 Ga 0.0000 0.0000 0.0000 0
M  V30 3 Ba -1.4750 0.0000 0.0000 0
M  V30 END ATOM
M  V30 BEGIN BOND
M  V30 1 1 1 2
M  V30 2 1 2 3
M  V30 END BOND
M  V30 END CTAB
M  END

$$$$
