
     RDKit          3D

  0  0  0  0  0  0  0  0  0  0999 V3000
M  V30 BEGIN CTAB
M  V30 COUNTS 99 108 0 0 0
M  V30 BEGIN ATOM
M  V30 1 Pd 4.7332 4.6662 0.6729 0
M  V30 2 Pb 5.2511 4.6265 -0.1823 0
M  V30 3 Pb 5.1783 3.8283 0.9889 0
M  V30 4 Pb 4.2317 4.7095 1.5371 0
M  V30 5 Pb 4.2973 5.5144 0.3701 0
M  V30 6 Pd -1.7975 3.1284 4.2662 0
M  V30 7 Pb -2.7221 2.7727 4.1337 0
M  V30 8 Pb -1.6129 2.3730 4.8942 0
M  V30 9 Pb -1.9803 3.8806 3.6340 0
M  V30 10 Pb -0.8711 3.4808 4.3944 0
M  V30 11 Pd -5.7651 -2.8705 1.7760 0
M  V30 12 Pb -5.9715 -2.4481 0.8933 0
M  V30 13 Pb -5.8075 -1.9670 2.2028 0
M  V30 14 Pb -5.5761 -3.2888 2.6651 0
M  V30 15 Pb -5.7413 -3.7735 1.3456 0
M  V30 16 Pd 4.7242 -2.9426 0.4895 0
M  V30 17 Pb 4.4329 -3.2549 1.3931 0
M  V30 18 Pb 5.0109 -2.6275 -0.4146 0
M  V30 19 Pb 4.2691 -3.7353 0.0851 0
M  V30 20 Pb 5.1746 -2.1470 0.8934 0
M  V30 21 Pd 4.0850 2.7639 -4.5060 0
M  V30 22 Pb 4.7781 3.2381 -3.9620 0
M  V30 23 Pb 4.5163 1.8851 -4.3011 0
M  V30 24 Pb 3.6590 3.6414 -4.7292 0
M  V30 25 Pb 3.4057 2.2853 -5.0625 0
M  V30 26 Pd -2.0214 -6.3553 -0.3918 0
M  V30 27 Pb -1.8901 -6.7200 0.5306 0
M  V30 28 Pb -2.1475 -6.0077 -1.3211 0
M  V30 29 Pb -1.0369 -6.4079 -0.5597 0
M  V30 30 Pb -3.0091 -6.3168 -0.2365 0
M  V30 31 Pd -1.3731 -4.4530 4.7869 0
M  V30 32 Pb -2.3708 -4.4437 4.8626 0
M  V30 33 Pb -1.4169 -5.3317 4.3102 0
M  V30 34 Pb -0.3746 -4.4648 4.7302 0
M  V30 35 Pb -1.3213 -3.5835 5.2783 0
M  V30 36 Pd 0.3413 6.2487 -2.3380 0
M  V30 37 Pb -0.4183 5.8449 -2.8479 0
M  V30 38 Pb -0.2544 6.3260 -1.5384 0
M  V30 39 Pb 1.0920 6.6694 -1.8273 0
M  V30 40 Pb 0.9268 6.1847 -3.1469 0
M  V30 41 Pd -2.9268 -0.1857 -4.7557 0
M  V30 42 Pb -3.7690 -0.2995 -4.2297 0
M  V30 43 Pb -2.0816 -0.0718 -5.2770 0
M  V30 44 Pb -3.0272 0.8083 -4.7295 0
M  V30 45 Pb -2.8235 -1.1796 -4.7773 0
M  V30 46 Fe 5.6525 4.6048 -0.8162 0
M  V30 47 Ni 5.4625 4.0931 -2.1873 0
M  V30 48 Fe 5.3082 3.5942 -3.5676 0
M  V30 49 Fe -5.7405 -4.4519 1.0246 0
M  V30 50 Ni -4.7318 -5.3649 0.4529 0
M  V30 51 Fe -3.7516 -6.3033 -0.1271 0
M  V30 52 Fe -5.4512 -3.6033 3.3351 0
M  V30 53 Ni -4.2726 -4.0176 4.1206 0
M  V30 54 Fe -3.1179 -4.4440 4.9347 0
M  V30 55 Fe 3.3488 4.3002 -4.9109 0
M  V30 56 Ni 2.3520 5.2139 -4.3197 0
M  V30 57 Fe 1.3599 6.1516 -3.7590 0
M  V30 58 Fe -1.7921 -7.0094 1.2162 0
M  V30 59 Ni -1.6212 -6.4857 2.5853 0
M  V30 60 Fe -1.4476 -5.9988 3.9676 0
M  V30 61 Fe 3.9823 6.1596 0.1511 0
M  V30 62 Ni 2.8110 6.5613 -0.6518 0
M  V30 63 Fe 1.6490 7.0004 -1.4485 0
M  V30 64 Ba -0.9998 5.5520 -3.2203 0
M  V30 65 Ag -2.0436 3.5545 -3.9685 0
M  V30 66 Ba -3.0851 1.5554 -4.7156 0
M  V30 67 Ba -6.1361 -2.1183 0.2400 0
M  V30 68 Ag -5.2675 -1.2599 -1.7966 0
M  V30 69 Ba -4.3961 -0.4024 -3.8324 0
M  V30 70 Ba 3.9194 -4.3327 -0.2021 0
M  V30 71 Ag 1.8094 -5.3928 -0.4536 0
M  V30 72 Ba -0.3020 -6.4507 -0.7035 0
M  V30 73 Ba 5.2303 -2.3749 -1.0853 0
M  V30 74 Ag 5.0332 -0.5783 -2.6256 0
M  V30 75 Ba 4.8343 1.2198 -4.1640 0
M  V30 76 Ba 2.9090 1.9136 -5.4839 0
M  V30 77 Ag 0.7308 0.9720 -5.5751 0
M  V30 78 Ba -1.4479 0.0315 -5.6637 0
M  V30 79 Ba -2.2273 -5.7569 -2.0234 0
M  V30 80 Ag -2.4932 -3.8425 -3.4032 0
M  V30 81 Ba -2.7589 -1.9263 -4.7805 0
M  V30 82 Ba 5.5110 3.2060 1.2433 0
M  V30 83 Ag 5.5135 0.8315 1.2124 0
M  V30 84 Ba 5.5138 -1.5430 1.1795 0
M  V30 85 Ba -2.0994 4.4482 3.1593 0
M  V30 86 Ag -1.4086 5.4183 1.1048 0
M  V30 87 Ba -0.7157 6.3861 -0.9500 0
M  V30 88 Ba 4.2029 -3.5008 2.0627 0
M  V30 89 Ag 2.2898 -3.9830 3.3844 0
M  V30 90 Ba 0.3750 -4.4644 4.7038 0
M  V30 91 Ba -1.4897 1.7983 5.3592 0
M  V30 92 Ag -1.3775 -0.5691 5.5080 0
M  V30 93 Ba -1.2662 -2.9367 5.6540 0
M  V30 94 Ba 3.8699 4.7338 2.1937 0
M  V30 95 Ag 1.8462 4.2454 3.3362 0
M  V30 96 Ba -0.1788 3.7561 4.4761 0
M  V30 97 Ba -3.4104 2.4904 4.0425 0
M  V30 98 Ag -4.6323 0.6037 3.2768 0
M  V30 99 Ba -5.8519 -1.2843 2.5103 0
M  V30 END ATOM
M  V30 BEGIN BOND
M  V30 1 1 1 2
M  V30 2 1 1 3
M  V30 3 1 1 4
M  V30 4 1 1 5
M  V30 5 1 6 7
M  V30 6 1 6 8
M  V30 7 1 6 9
M  V30 8 1 6 10
M  V30 9 1 11 12
M  V30 10 1 11 13
M  V30 11 1 11 14
M  V30 12 1 11 15
M  V30 13 1 16 17
M  V30 14 1 16 18
M  V30 15 1 16 19
M  V30 16 1 16 20
M  V30 17 1 21 22
M  V30 18 1 21 23
M  V30 19 1 21 24
M  V30 20 1 21 25
M  V30 21 1 26 27
M  V30 22 1 26 28
M  V30 23 1 26 29
M  V30 24 1 26 30
M  V30 25 1 31 32
M  V30 26 1 31 33
M  V30 27 1 31 34
M  V30 28 1 31 35
M  V30 29 1 36 37
M  V30 30 1 36 38
M  V30 31 1 36 39
M  V30 32 1 36 40
M  V30 33 1 41 42
M  V30 34 1 41 43
M  V30 35 1 41 44
M  V30 36 1 41 45
M  V30 37 1 46 47
M  V30 38 1 47 48
M  V30 39 1 49 50
M  V30 40 1 50 51
M  V30 41 1 52 53
M  V30 42 1 53 54
M  V30 43 1 55 56
M  V30 44 1 56 57
M  V30 45 1 58 59
M  V30 46 1 59 60
M  V30 47 1 61 62
M  V30 48 1 62 63
M  V30 49 1 64 65
M  V30 50 1 65 66
M  V30 51 1 67 68
M  V30 52 1 68 69
M  V30 53 1 70 71
M  V30 54 1 71 72
M  V30 55 1 73 74
M  V30 56 1 74 75
M  V30 57 1 76 77
M  V30 58 1 77 78
M  V30 59 1 79 80
M  V30 60 1 80 81
M  V30 61 1 82 83
M  V30 62 1 83 84
M  V30 63 1 85 86
M  V30 64 1 86 87
M  V30 65 1 88 89
M  V30 66 1 89 90
M  V30 67 1 91 92
M  V30 68 1 92 93
M  V30 69 1 94 95
M  V30 70 1 95 96
M  V30 71 1 97 98
M  V30 72 1 98 99
M  V30 73 1 2 46
M  V30 74 1 3 82
M  V30 75 1 4 94
M  V30 76 1 5 61
M  V30 77 1 7 97
M  V30 78 1 8 91
M  V30 79 1 9 85
M  V30 80 1 10 96
M  V30 81 1 12 67
M  V30 82 1 13 99
M  V30 83 1 14 52
M  V30 84 1 15 49
M  V30 85 1 17 88
M  V30 86 1 18 73
M  V30 87 1 19 70
M  V30 88 1 20 84
M  V30 89 1 22 48
M  V30 90 1 23 75
M  V30 91 1 24 55
M  V30 92 1 25 76
M  V30 93 1 27 58
M  V30 94 1 28 79
M  V30 95 1 29 72
M  V30 96 1 30 51
M  V30 97 1 32 54
M  V30 98 1 33 60
M  V30 99 1 34 90
M  V30 100 1 35 93
M  V30 101 1 37 64
M  V30 102 1 38 87
M  V30 103 1 39 63
M  V30 104 1 40 57
M  V30 105 1 42 69
M  V30 106 1 43 78
M  V30 107 1 44 66
M  V30 108 1 45 81
M  V30 END BOND
M  V30 END CTAB
M  END

$$$$
