
     RDKit          3D

  0  0  0  0  0  0  0  0  0  0999 V3000
M  V30 BEGIN CTAB
M  V30 COUNTS 5 4 0 0 0
M  V30 BEGIN ATOM
M  V30 1 Pd -0.0000 -0.0000 0.0000 0
M  V30 2 Ba 1.0000 0.0000 -0.0000 0
M  V30 3 Ba 0.0000 1.0000 -0.0000 0
M  V30 4 Ba -1.0000 0.0000 -0.0000 0
M  V30 5 Ba 0.0000 -1.0000 -0.0000 0
M  V30 END ATOM
M  V30 BEGIN BOND
M  V30 1 1 1 2
M  V30 2 1 1 3
M  V30 3 1 1 4
M  V30 4 1 1 5
M  V30 END BOND
M  V30 END CTAB
M  END

$$$$
