
     RDKit          3D

  0  0  0  0  0  0  0  0  0  0999 V3000
M  V30 BEGIN CTAB
M  V30 COUNTS 42 45 0 0 0
M  V30 BEGIN ATOM
M  V30 1 Pd -0.2688 -3.2660 -0.1369 0
M  V30 2 Ba 0.3882 -3.8817 0.3018 0
M  V30 3 Ba 0.4788 -2.7955 -0.6246 0
M  V30 4 Ba -1.0023 -3.7686 0.3239 0
M  V30 5 Ba -0.9455 -2.6795 -0.6017 0
M  V30 6 Pd 2.9599 1.4035 -0.1682 0
M  V30 7 Ba 2.1693 1.8254 -0.6317 0
M  V30 8 Ba 2.7808 0.5336 -0.6470 0
M  V30 9 Ba 3.1740 2.2713 0.2837 0
M  V30 10 Ba 3.7707 1.0102 0.2689 0
M  V30 11 Pd -2.6971 1.8642 -0.0745 0
M  V30 12 Ba -2.7528 2.7538 0.3823 0
M  V30 13 Ba -3.5463 1.6063 0.3897 0
M  V30 14 Ba -1.8642 2.1539 -0.5646 0
M  V30 15 Ba -2.6770 0.9784 -0.5570 0
M  V30 16 Ni 0.8654 -4.2925 0.6101 0
M  V30 17 Ga 1.4564 -3.9661 0.7547 0
M  V30 18 Fe 2.0409 -3.5261 0.8644 0
M  V30 19 Fe 4.0252 -0.6564 0.8450 0
M  V30 20 Ga 4.2298 0.0447 0.7277 0
M  V30 21 Ni 4.3256 0.7115 0.5764 0
M  V30 22 Ni 3.2977 2.8838 0.6019 0
M  V30 23 Ga 2.7227 3.2294 0.7653 0
M  V30 24 Fe 2.0519 3.5132 0.8945 0
M  V30 25 Fe -1.4251 3.7961 0.9525 0
M  V30 26 Ga -2.1369 3.6248 0.8464 0
M  V30 27 Ni -2.7652 3.3772 0.7030 0
M  V30 28 Ni -1.5296 -4.0978 0.6483 0
M  V30 29 Ga -2.0551 -3.6806 0.8111 0
M  V30 30 Fe -2.5568 -3.1522 0.9386 0
M  V30 31 Fe -4.0493 0.0012 0.9772 0
M  V30 32 Ga -4.1410 0.7266 0.8652 0
M  V30 33 Ni -4.1320 1.4006 0.7157 0
M  V30 34 Ag 1.1638 2.4756 -1.3726 0
M  V30 35 Pb 0.1826 2.4965 -1.2776 0
M  V30 36 Ag -0.7916 2.6349 -1.3400 0
M  V30 37 Ag -1.9135 -1.9752 -1.3432 0
M  V30 38 Pb -2.2790 -1.0638 -1.2543 0
M  V30 39 Ag -2.7529 -0.2018 -1.3215 0
M  V30 40 Ag 1.5237 -2.2555 -1.3987 0
M  V30 41 Pb 2.0348 -1.4156 -1.3244 0
M  V30 42 Ag 2.6397 -0.6417 -1.4096 0
M  V30 END ATOM
M  V30 BEGIN BOND
M  V30 1 1 1 2
M  V30 2 1 1 3
M  V30 3 1 1 4
M  V30 4 1 1 5
M  V30 5 1 6 7
M  V30 6 1 6 8
M  V30 7 1 6 9
M  V30 8 1 6 10
M  V30 9 1 11 12
M  V30 10 1 11 13
M  V30 11 1 11 14
M  V30 12 1 11 15
M  V30 13 1 16 17
M  V30 14 1 17 18
M  V30 15 1 18 19
M  V30 16 1 19 20
M  V30 17 1 20 21
M  V30 18 1 22 23
M  V30 19 1 23 24
M  V30 20 1 24 25
M  V30 21 1 25 26
M  V30 22 1 26 27
M  V30 23 1 28 29
M  V30 24 1 29 30
M  V30 25 1 30 31
M  V30 26 1 31 32
M  V30 27 1 32 33
M  V30 28 1 34 35
M  V30 29 1 35 36
M  V30 30 1 37 38
M  V30 31 1 38 39
M  V30 32 1 40 41
M  V30 33 1 41 42
M  V30 34 1 2 16
M  V30 35 1 3 40
M  V30 36 1 4 28
M  V30 37 1 5 37
M  V30 38 1 7 34
M  V30 39 1 8 42
M  V30 40 1 9 22
M  V30 41 1 10 21
M  V30 42 1 12 27
M  V30 43 1 13 33
M  V30 44 1 14 36
M  V30 45 1 15 39
M  V30 END BOND
M  V30 END CTAB
M  END

$$$$
