
     RDKit          3D

  0  0  0  0  0  0  0  0  0  0999 V3000
M  V30 BEGIN CTAB
M  V30 COUNTS 48 51 0 0 0
M  V30 BEGIN ATOM
M  V30 1 Pd -2.5173 0.9271 -2.6896 0
M  V30 2 Ba -3.4553 1.1153 -2.6538 0
M  V30 3 Ba -2.7460 0.3651 -1.9286 0
M  V30 4 Ba -1.7480 0.4680 -2.9805 0
M  V30 5 Ba -2.2135 1.6571 -3.2876 0
M  V30 6 Pd -2.0293 -1.4134 2.8737 0
M  V30 7 Ba -1.5805 -1.4203 3.7631 0
M  V30 8 Ba -2.4406 -1.1773 2.0181 0
M  V30 9 Ba -1.1830 -1.6670 2.5590 0
M  V30 10 Ba -2.9550 -1.4268 3.1267 0
M  V30 11 Pd 4.3219 0.6093 -0.1136 0
M  V30 12 Ba 4.5266 -0.2807 0.2799 0
M  V30 13 Ba 4.4022 0.2981 -1.0438 0
M  V30 14 Ba 4.2105 0.8656 0.8504 0
M  V30 15 Ba 4.1049 1.4861 -0.5860 0
M  V30 16 Ni -4.1227 1.0846 -2.5019 0
M  V30 17 Ga -4.2840 0.5854 -2.0122 0
M  V30 18 Fe -4.4120 0.1092 -1.4487 0
M  V30 19 Fe -4.1408 -1.3078 1.7354 0
M  V30 20 Ga -3.8971 -1.3940 2.4380 0
M  V30 21 Ni -3.6358 -1.4378 3.0973 0
M  V30 22 Ni -0.5964 -1.8428 2.3752 0
M  V30 23 Ga -0.0893 -1.9712 2.7805 0
M  V30 24 Fe 0.5958 -1.9973 2.9649 0
M  V30 25 Fe 3.7227 -1.2321 1.6743 0
M  V30 26 Ga 4.2090 -1.0252 1.1729 0
M  V30 27 Ni 4.6037 -0.8831 0.6270 0
M  V30 28 Ni -1.1365 -1.3817 4.2830 0
M  V30 29 Ga -0.4833 -1.2084 4.0744 0
M  V30 30 Fe 0.2083 -1.0355 3.7857 0
M  V30 31 Fe 3.1368 0.1748 2.2728 0
M  V30 32 Ga 3.6432 0.5756 1.9008 0
M  V30 33 Ni 4.0912 1.0010 1.5393 0
M  V30 34 Ni -1.1987 0.1402 -3.1882 0
M  V30 35 Ga -0.6587 0.4880 -3.4124 0
M  V30 36 Fe 0.0179 0.7446 -3.5140 0
M  V30 37 Fe 3.3423 0.6621 -2.5096 0
M  V30 38 Ga 3.9120 0.4340 -2.1052 0
M  V30 39 Ni 4.3961 0.1277 -1.7121 0
M  V30 40 Ni -1.8683 2.1401 -3.6436 0
M  V30 41 Ga -1.1774 2.1275 -3.4873 0
M  V30 42 Fe -0.4330 2.0874 -3.2864 0
M  V30 43 Fe 2.7754 2.0038 -1.8591 0
M  V30 44 Ga 3.3691 2.0287 -1.4107 0
M  V30 45 Ni 3.9097 2.0720 -0.9480 0
M  V30 46 Ag -3.3645 -0.1406 -0.7887 0
M  V30 47 Pb -3.1366 -0.4126 0.1060 0
M  V30 48 Ag -3.2792 -0.7831 0.9706 0
M  V30 END ATOM
M  V30 BEGIN BOND
M  V30 1 1 1 2
M  V30 2 1 1 3
M  V30 3 1 1 4
M  V30 4 1 1 5
M  V30 5 1 6 7
M  V30 6 1 6 8
M  V30 7 1 6 9
M  V30 8 1 6 10
M  V30 9 1 11 12
M  V30 10 1 11 13
M  V30 11 1 11 14
M  V30 12 1 11 15
M  V30 13 1 16 17
M  V30 14 1 17 18
M  V30 15 1 18 19
M  V30 16 1 19 20
M  V30 17 1 20 21
M  V30 18 1 22 23
M  V30 19 1 23 24
M  V30 20 1 24 25
M  V30 21 1 25 26
M  V30 22 1 26 27
M  V30 23 1 28 29
M  V30 24 1 29 30
M  V30 25 1 30 31
M  V30 26 1 31 32
M  V30 27 1 32 33
M  V30 28 1 34 35
M  V30 29 1 35 36
M  V30 30 1 36 37
M  V30 31 1 37 38
M  V30 32 1 38 39
M  V30 33 1 40 41
M  V30 34 1 41 42
M  V30 35 1 42 43
M  V30 36 1 43 44
M  V30 37 1 44 45
M  V30 38 1 46 47
M  V30 39 1 47 48
M  V30 40 1 2 16
M  V30 41 1 3 46
M  V30 42 1 4 34
M  V30 43 1 5 40
M  V30 44 1 7 28
M  V30 45 1 8 48
M  V30 46 1 9 22
M  V30 47 1 10 21
M  V30 48 1 12 27
M  V30 49 1 13 39
M  V30 50 1 14 33
M  V30 51 1 15 45
M  V30 END BOND
M  V30 END CTAB
M  END

$$$$
