
     RDKit          3D

  0  0  0  0  0  0  0  0  0  0999 V3000
M  V30 BEGIN CTAB
M  V30 COUNTS 36 39 0 0 0
M  V30 BEGIN ATOM
M  V30 1 Pd 1.4691 1.3237 -4.0593 0
M  V30 2 Ba 1.7254 2.1704 -4.5359 0
M  V30 3 Ba 1.2356 0.4925 -3.5425 0
M  V30 4 Ba 2.3099 1.4501 -3.5520 0
M  V30 5 Ba 0.5461 1.4143 -4.3899 0
M  V30 6 Pd 1.0154 0.6909 0.8123 0
M  V30 7 Ba 1.1286 1.4497 1.4455 0
M  V30 8 Ba 0.9126 -0.0108 0.1017 0
M  V30 9 Ba 0.0217 0.8314 0.8426 0
M  V30 10 Ba 2.0140 0.6206 0.7778 0
M  V30 11 Pd 0.1831 3.4717 -1.1538 0
M  V30 12 Ba -0.6965 3.2652 -0.7334 0
M  V30 13 Ba 1.1387 3.4938 -1.4776 0
M  V30 14 Ba 0.5344 3.7369 -0.2533 0
M  V30 15 Ba -0.2699 3.2766 -2.0366 0
M  V30 16 Ni 1.9908 2.7889 -4.7375 0
M  V30 17 Ga 2.3822 2.9677 -4.1982 0
M  V30 18 Fe 2.7065 2.9468 -3.5345 0
M  V30 19 Fe 3.0556 1.5059 -0.3712 0
M  V30 20 Ga 2.9308 1.0489 0.2043 0
M  V30 21 Ni 2.7114 0.6170 0.7044 0
M  V30 22 Ag -1.3475 1.1383 0.8923 0
M  V30 23 Pb -1.6324 1.9401 0.4122 0
M  V30 24 Ag -1.8280 2.7514 -0.0949 0
M  V30 25 Ag 1.3125 2.6145 2.1897 0
M  V30 26 Pb 1.1468 3.4037 1.6498 0
M  V30 27 Ag 0.9573 4.1239 1.0266 0
M  V30 28 Ag 3.3227 2.0102 -2.7785 0
M  V30 29 Pb 2.9581 2.7011 -2.1868 0
M  V30 30 Ag 2.5381 3.3873 -1.6272 0
M  V30 31 Ag -0.7524 1.8521 -4.5951 0
M  V30 32 Pb -0.9823 2.4596 -3.8673 0
M  V30 33 Ag -1.1542 3.0614 -3.1176 0
M  V30 34 Ag 0.9245 -0.6909 -2.8497 0
M  V30 35 Pb 0.8501 -0.7874 -1.8741 0
M  V30 36 Ag 0.7571 -0.9694 -0.9123 0
M  V30 END ATOM
M  V30 BEGIN BOND
M  V30 1 1 1 2
M  V30 2 1 1 3
M  V30 3 1 1 4
M  V30 4 1 1 5
M  V30 5 1 6 7
M  V30 6 1 6 8
M  V30 7 1 6 9
M  V30 8 1 6 10
M  V30 9 1 11 12
M  V30 10 1 11 13
M  V30 11 1 11 14
M  V30 12 1 11 15
M  V30 13 1 16 17
M  V30 14 1 17 18
M  V30 15 1 18 19
M  V30 16 1 19 20
M  V30 17 1 20 21
M  V30 18 1 22 23
M  V30 19 1 23 24
M  V30 20 1 25 26
M  V30 21 1 26 27
M  V30 22 1 28 29
M  V30 23 1 29 30
M  V30 24 1 31 32
M  V30 25 1 32 33
M  V30 26 1 34 35
M  V30 27 1 35 36
M  V30 28 1 2 16
M  V30 29 1 3 34
M  V30 30 1 4 28
M  V30 31 1 5 31
M  V30 32 1 7 25
M  V30 33 1 8 36
M  V30 34 1 9 22
M  V30 35 1 10 21
M  V30 36 1 12 24
M  V30 37 1 13 30
M  V30 38 1 14 27
M  V30 39 1 15 33
M  V30 END BOND
M  V30 END CTAB
M  END

$$$$
