
     RDKit          3D

  0  0  0  0  0  0  0  0  0  0999 V3000
M  V30 BEGIN CTAB
M  V30 COUNTS 36 39 0 0 0
M  V30 BEGIN ATOM
M  V30 1 Pd 2.3174 -0.3849 1.2048 0
M  V30 2 Ba 3.1894 -0.7872 0.9157 0
M  V30 3 Ba 2.7244 0.4454 1.5878 0
M  V30 4 Ba 1.4892 0.1323 1.4173 0
M  V30 5 Ba 1.8793 -1.1611 0.7410 0
M  V30 6 Pd 1.5340 3.4701 -0.9653 0
M  V30 7 Ba 2.5047 3.3686 -1.1690 0
M  V30 8 Ba 1.8042 3.4405 0.0034 0
M  V30 9 Ba 0.5488 3.3981 -0.7819 0
M  V30 10 Ba 1.3568 3.4155 -1.9508 0
M  V30 11 Pd 1.2470 0.7195 -1.4092 0
M  V30 12 Ba 0.2572 0.7666 -1.3147 0
M  V30 13 Ba 1.1722 1.5355 -0.8480 0
M  V30 14 Ba 2.2429 0.7844 -1.5050 0
M  V30 15 Ba 1.2248 -0.2163 -1.7428 0
M  V30 16 Ni 3.7765 -1.0117 0.6034 0
M  V30 17 Ga 3.7809 -0.7530 -0.0417 0
M  V30 18 Fe 3.6393 -0.3848 -0.6728 0
M  V30 19 Fe 2.1408 2.0984 -2.6202 0
M  V30 20 Ga 1.7102 2.6959 -2.7243 0
M  V30 21 Ni 1.3188 3.2627 -2.6345 0
M  V30 22 Ag -0.8138 3.0874 -0.6344 0
M  V30 23 Pb -1.0103 2.1486 -0.8330 0
M  V30 24 Ag -1.0465 1.1964 -1.0566 0
M  V30 25 Ag 3.8117 2.9588 -1.4418 0
M  V30 26 Pb 3.8013 1.9938 -1.5637 0
M  V30 27 Ag 3.6127 1.0435 -1.6564 0
M  V30 28 Ag 0.6344 1.2051 1.7065 0
M  V30 29 Pb 0.6216 1.8531 0.9769 0
M  V30 30 Ag 0.6924 2.3768 0.1572 0
M  V30 31 Ag 1.4298 -2.2298 -0.0531 0
M  V30 32 Pb 1.2479 -1.9872 -0.9805 0
M  V30 33 Ag 1.0946 -1.5993 -1.8616 0
M  V30 34 Ag 3.0251 1.7059 2.1253 0
M  V30 35 Pb 2.7112 2.5294 1.6851 0
M  V30 36 Ag 2.4089 3.3711 1.2723 0
M  V30 END ATOM
M  V30 BEGIN BOND
M  V30 1 1 1 2
M  V30 2 1 1 3
M  V30 3 1 1 4
M  V30 4 1 1 5
M  V30 5 1 6 7
M  V30 6 1 6 8
M  V30 7 1 6 9
M  V30 8 1 6 10
M  V30 9 1 11 12
M  V30 10 1 11 13
M  V30 11 1 11 14
M  V30 12 1 11 15
M  V30 13 1 16 17
M  V30 14 1 17 18
M  V30 15 1 18 19
M  V30 16 1 19 20
M  V30 17 1 20 21
M  V30 18 1 22 23
M  V30 19 1 23 24
M  V30 20 1 25 26
M  V30 21 1 26 27
M  V30 22 1 28 29
M  V30 23 1 29 30
M  V30 24 1 31 32
M  V30 25 1 32 33
M  V30 26 1 34 35
M  V30 27 1 35 36
M  V30 28 1 2 16
M  V30 29 1 3 34
M  V30 30 1 4 28
M  V30 31 1 5 31
M  V30 32 1 7 25
M  V30 33 1 8 36
M  V30 34 1 9 22
M  V30 35 1 10 21
M  V30 36 1 12 24
M  V30 37 1 13 30
M  V30 38 1 14 27
M  V30 39 1 15 33
M  V30 END BOND
M  V30 END CTAB
M  END

$$$$
