
     RDKit          3D

  0  0  0  0  0  0  0  0  0  0999 V3000
M  V30 BEGIN CTAB
M  V30 COUNTS 45 48 0 0 0
M  V30 BEGIN ATOM
M  V30 1 Pd 0.3293 2.8423 -2.1219 0
M  V30 2 Ba 0.9777 3.5878 -2.3737 0
M  V30 3 Ba 0.2533 3.1620 -1.2498 0
M  V30 4 Ba -0.3814 2.2150 -1.8715 0
M  V30 5 Ba 0.3956 2.3835 -2.9324 0
M  V30 6 Pd 2.7366 2.2021 3.4771 0
M  V30 7 Ba 2.2561 1.5646 2.9067 0
M  V30 8 Ba 3.5894 1.7061 3.2210 0
M  V30 9 Ba 1.8402 2.1844 4.0221 0
M  V30 10 Ba 2.2895 3.1234 3.2915 0
M  V30 11 Pd 0.4326 -1.5516 -1.9383 0
M  V30 12 Ba 0.6566 -1.5054 -1.0025 0
M  V30 13 Ba -0.4492 -1.2043 -1.7874 0
M  V30 14 Ba 1.3512 -1.9509 -2.0813 0
M  V30 15 Ba 0.3929 -1.2383 -2.9010 0
M  V30 16 Ni 1.4515 4.1278 -2.5392 0
M  V30 17 Ga 1.8377 4.4309 -2.0193 0
M  V30 18 Fe 2.2452 4.6256 -1.4141 0
M  V30 19 Fe 2.9512 4.4284 1.9990 0
M  V30 20 Ga 2.6528 4.1386 2.6226 0
M  V30 21 Ni 2.1665 3.7806 3.0534 0
M  V30 22 Ni 1.1900 2.1285 4.3463 0
M  V30 23 Ga 0.7329 1.7531 4.0214 0
M  V30 24 Fe 0.3924 1.3445 3.5103 0
M  V30 25 Fe 0.2336 -0.6978 0.6916 0
M  V30 26 Ga 0.4856 -1.1042 0.1277 0
M  V30 27 Ni 0.8140 -1.4729 -0.3448 0
M  V30 28 Ni 1.9883 1.0501 2.4958 0
M  V30 29 Ga 2.4618 0.5762 2.2903 0
M  V30 30 Fe 2.8236 0.1046 1.8790 0
M  V30 31 Fe 2.8179 -1.7568 -1.0584 0
M  V30 32 Ga 2.5007 -2.0223 -1.6745 0
M  V30 33 Ni 2.0041 -2.2134 -2.1501 0
M  V30 34 Ni 0.3408 3.3001 -0.6380 0
M  V30 35 Ga 0.9835 3.0935 -0.5730 0
M  V30 36 Fe 1.6743 2.9072 -0.4606 0
M  V30 37 Fe 4.1949 1.7931 1.6305 0
M  V30 38 Ga 4.2969 1.5514 2.2836 0
M  V30 39 Ni 4.1924 1.3784 2.9631 0
M  V30 40 Ag -1.5034 1.4446 -1.5981 0
M  V30 41 Pb -1.5298 0.4772 -1.5359 0
M  V30 42 Ag -1.5968 -0.4966 -1.4627 0
M  V30 43 Ag 0.5068 1.5062 -3.9615 0
M  V30 44 Pb 0.4251 0.5165 -3.9688 0
M  V30 45 Ag 0.3670 -0.4739 -4.0831 0
M  V30 END ATOM
M  V30 BEGIN BOND
M  V30 1 1 1 2
M  V30 2 1 1 3
M  V30 3 1 1 4
M  V30 4 1 1 5
M  V30 5 1 6 7
M  V30 6 1 6 8
M  V30 7 1 6 9
M  V30 8 1 6 10
M  V30 9 1 11 12
M  V30 10 1 11 13
M  V30 11 1 11 14
M  V30 12 1 11 15
M  V30 13 1 16 17
M  V30 14 1 17 18
M  V30 15 1 18 19
M  V30 16 1 19 20
M  V30 17 1 20 21
M  V30 18 1 22 23
M  V30 19 1 23 24
M  V30 20 1 24 25
M  V30 21 1 25 26
M  V30 22 1 26 27
M  V30 23 1 28 29
M  V30 24 1 29 30
M  V30 25 1 30 31
M  V30 26 1 31 32
M  V30 27 1 32 33
M  V30 28 1 34 35
M  V30 29 1 35 36
M  V30 30 1 36 37
M  V30 31 1 37 38
M  V30 32 1 38 39
M  V30 33 1 40 41
M  V30 34 1 41 42
M  V30 35 1 43 44
M  V30 36 1 44 45
M  V30 37 1 2 16
M  V30 38 1 3 34
M  V30 39 1 4 40
M  V30 40 1 5 43
M  V30 41 1 7 28
M  V30 42 1 8 39
M  V30 43 1 9 22
M  V30 44 1 10 21
M  V30 45 1 12 27
M  V30 46 1 13 42
M  V30 47 1 14 33
M  V30 48 1 15 45
M  V30 END BOND
M  V30 END CTAB
M  END

$$$$
