
     RDKit          3D

  0  0  0  0  0  0  0  0  0  0999 V3000
M  V30 BEGIN CTAB
M  V30 COUNTS 39 42 0 0 0
M  V30 BEGIN ATOM
M  V30 1 Pd 1.0506 -0.2262 3.1003 0
M  V30 2 Ba 0.6790 0.6651 3.3603 0
M  V30 3 Ba 1.9323 0.2009 2.8999 0
M  V30 4 Ba 0.1562 -0.6452 3.2536 0
M  V30 5 Ba 1.4069 -1.1084 2.7942 0
M  V30 6 Pd -0.6916 1.1265 -3.0069 0
M  V30 7 Ba -1.5814 0.7038 -2.8377 0
M  V30 8 Ba 0.2121 1.5366 -3.1304 0
M  V30 9 Ba -0.3307 0.2407 -3.2970 0
M  V30 10 Ba -1.0413 2.0007 -2.6701 0
M  V30 11 Pd -0.9262 -2.2543 -0.2369 0
M  V30 12 Ba -0.4941 -2.3469 -1.1358 0
M  V30 13 Ba -1.3654 -2.1791 0.6603 0
M  V30 14 Ba -1.7465 -1.8832 -0.6759 0
M  V30 15 Ba -0.1130 -2.6429 0.2003 0
M  V30 16 Ni 0.4078 1.2954 3.4980 0
M  V30 17 Ga 0.1470 1.6383 2.9481 0
M  V30 18 Fe -0.1164 1.9582 2.3249 0
M  V30 19 Fe -1.0550 2.6870 -0.9655 0
M  V30 20 Ga -1.1799 2.6685 -1.7032 0
M  V30 21 Ni -1.2725 2.6000 -2.3922 0
M  V30 22 Ni 2.5341 0.5080 2.7170 0
M  V30 23 Ga 2.5654 0.7427 2.0599 0
M  V30 24 Fe 2.5425 0.9736 1.3483 0
M  V30 25 Fe 1.6039 1.7024 -1.9420 0
M  V30 26 Ga 1.2386 1.7729 -2.5915 0
M  V30 27 Ni 0.8538 1.8126 -3.1731 0
M  V30 28 Ag 0.1833 -1.0098 -3.6589 0
M  V30 29 Pb 0.1375 -1.7524 -3.0269 0
M  V30 30 Ag 0.0944 -2.4986 -2.3989 0
M  V30 31 Ag -2.8126 0.0996 -2.5586 0
M  V30 32 Pb -2.8538 -0.6448 -1.9283 0
M  V30 33 Ag -2.9010 -1.3894 -1.2988 0
M  V30 34 Ag -1.1061 -1.2252 3.4236 0
M  V30 35 Pb -1.5427 -1.6626 2.6679 0
M  V30 36 Ag -1.9841 -2.1012 1.9156 0
M  V30 37 Ag 1.8897 -2.3347 2.3232 0
M  V30 38 Pb 1.4485 -2.7704 1.5692 0
M  V30 39 Ag 1.0113 -3.2105 0.8154 0
M  V30 END ATOM
M  V30 BEGIN BOND
M  V30 1 1 1 2
M  V30 2 1 1 3
M  V30 3 1 1 4
M  V30 4 1 1 5
M  V30 5 1 6 7
M  V30 6 1 6 8
M  V30 7 1 6 9
M  V30 8 1 6 10
M  V30 9 1 11 12
M  V30 10 1 11 13
M  V30 11 1 11 14
M  V30 12 1 11 15
M  V30 13 1 16 17
M  V30 14 1 17 18
M  V30 15 1 18 19
M  V30 16 1 19 20
M  V30 17 1 20 21
M  V30 18 1 22 23
M  V30 19 1 23 24
M  V30 20 1 24 25
M  V30 21 1 25 26
M  V30 22 1 26 27
M  V30 23 1 28 29
M  V30 24 1 29 30
M  V30 25 1 31 32
M  V30 26 1 32 33
M  V30 27 1 34 35
M  V30 28 1 35 36
M  V30 29 1 37 38
M  V30 30 1 38 39
M  V30 31 1 2 16
M  V30 32 1 3 22
M  V30 33 1 4 34
M  V30 34 1 5 37
M  V30 35 1 7 31
M  V30 36 1 8 27
M  V30 37 1 9 28
M  V30 38 1 10 21
M  V30 39 1 12 30
M  V30 40 1 13 36
M  V30 41 1 14 33
M  V30 42 1 15 39
M  V30 END BOND
M  V30 END CTAB
M  END

$$$$
