
     RDKit          3D

  0  0  0  0  0  0  0  0  0  0999 V3000
M  V30 BEGIN CTAB
M  V30 COUNTS 36 39 0 0 0
M  V30 BEGIN ATOM
M  V30 1 Pd 0.1175 2.3519 -1.2430 0
M  V30 2 Ba -0.7135 2.5640 -1.7680 0
M  V30 3 Ba -0.3792 2.4566 -0.3657 0
M  V30 4 Ba 0.9923 2.3132 -0.7659 0
M  V30 5 Ba 0.5672 2.0047 -2.0707 0
M  V30 6 Pd -1.2879 -1.4076 1.8522 0
M  V30 7 Ba -0.3716 -1.3318 2.2407 0
M  V30 8 Ba -1.4544 -0.4219 2.0044 0
M  V30 9 Ba -1.0461 -2.3111 1.4857 0
M  V30 10 Ba -2.2547 -1.5661 1.6376 0
M  V30 11 Pd 2.1452 -1.2121 -0.4987 0
M  V30 12 Ba 1.6012 -2.0575 -0.5553 0
M  V30 13 Ba 2.6668 -0.3798 -0.3570 0
M  V30 14 Ba 2.2928 -1.3806 0.4679 0
M  V30 15 Ba 2.0129 -0.9576 -1.4639 0
M  V30 16 Ni -1.2931 2.7119 -2.1341 0
M  V30 17 Ga -1.8410 2.3651 -1.9147 0
M  V30 18 Fe -2.3210 1.9049 -1.5937 0
M  V30 19 Fe -3.2886 -0.6833 0.5366 0
M  V30 20 Ga -3.1756 -1.2142 1.0347 0
M  V30 21 Ni -2.9320 -1.6706 1.4820 0
M  V30 22 Ag -0.6318 -3.4442 0.7746 0
M  V30 23 Pb 0.1236 -3.3560 0.1517 0
M  V30 24 Ag 0.8783 -3.2624 -0.4694 0
M  V30 25 Ag 0.8654 -1.3340 2.8922 0
M  V30 26 Pb 1.6885 -1.3912 2.3852 0
M  V30 27 Ag 2.4881 -1.4498 1.8449 0
M  V30 28 Ag 2.2603 2.3988 -0.1866 0
M  V30 29 Pb 2.8099 1.6081 -0.0859 0
M  V30 30 Ag 3.3264 0.7937 -0.0044 0
M  V30 31 Ag 1.1442 1.3030 -3.1410 0
M  V30 32 Pb 1.5335 0.4208 -2.9613 0
M  V30 33 Ag 1.9230 -0.4602 -2.7770 0
M  V30 34 Ag -1.0846 2.4582 0.8607 0
M  V30 35 Pb -1.3359 1.6766 1.4286 0
M  V30 36 Ag -1.6394 0.9814 2.0767 0
M  V30 END ATOM
M  V30 BEGIN BOND
M  V30 1 1 1 2
M  V30 2 1 1 3
M  V30 3 1 1 4
M  V30 4 1 1 5
M  V30 5 1 6 7
M  V30 6 1 6 8
M  V30 7 1 6 9
M  V30 8 1 6 10
M  V30 9 1 11 12
M  V30 10 1 11 13
M  V30 11 1 11 14
M  V30 12 1 11 15
M  V30 13 1 16 17
M  V30 14 1 17 18
M  V30 15 1 18 19
M  V30 16 1 19 20
M  V30 17 1 20 21
M  V30 18 1 22 23
M  V30 19 1 23 24
M  V30 20 1 25 26
M  V30 21 1 26 27
M  V30 22 1 28 29
M  V30 23 1 29 30
M  V30 24 1 31 32
M  V30 25 1 32 33
M  V30 26 1 34 35
M  V30 27 1 35 36
M  V30 28 1 2 16
M  V30 29 1 3 34
M  V30 30 1 4 28
M  V30 31 1 5 31
M  V30 32 1 7 25
M  V30 33 1 8 36
M  V30 34 1 9 22
M  V30 35 1 10 21
M  V30 36 1 12 24
M  V30 37 1 13 30
M  V30 38 1 14 27
M  V30 39 1 15 33
M  V30 END BOND
M  V30 END CTAB
M  END

$$$$
