
     RDKit          3D

  0  0  0  0  0  0  0  0  0  0999 V3000
M  V30 BEGIN CTAB
M  V30 COUNTS 42 45 0 0 0
M  V30 BEGIN ATOM
M  V30 1 Pd 0.0601 -2.3546 -2.4240 0
M  V30 2 Ba 0.9254 -2.0494 -2.0288 0
M  V30 3 Ba -0.3591 -2.4656 -1.5135 0
M  V30 4 Ba -0.7532 -2.7909 -2.8289 0
M  V30 5 Ba 0.3980 -2.0516 -3.3218 0
M  V30 6 Pd -1.2103 0.7640 2.2082 0
M  V30 7 Ba -1.2972 1.3989 1.4211 0
M  V30 8 Ba -1.3641 -0.0860 1.6751 0
M  V30 9 Ba -1.0018 1.5657 2.7741 0
M  V30 10 Ba -1.0641 0.1805 3.0111 0
M  V30 11 Pd 0.2577 2.0428 -3.1765 0
M  V30 12 Ba 1.0993 1.8130 -2.6898 0
M  V30 13 Ba -0.5210 2.3882 -3.7151 0
M  V30 14 Ba -0.1365 2.4864 -2.3610 0
M  V30 15 Ba 0.5544 1.4306 -3.9175 0
M  V30 16 Ni 1.5241 -1.8382 -1.7369 0
M  V30 17 Ga 1.5199 -1.8327 -1.0467 0
M  V30 18 Fe 1.4203 -1.8156 -0.3142 0
M  V30 19 Fe 0.0665 -1.0309 2.8026 0
M  V30 20 Ga -0.4095 -0.6894 3.2506 0
M  V30 21 Ni -0.8924 -0.2761 3.5152 0
M  V30 22 Ni -0.7834 2.1468 3.1007 0
M  V30 23 Ga -0.2704 2.4052 2.7211 0
M  V30 24 Fe 0.2268 2.5358 2.1923 0
M  V30 25 Fe 1.5975 2.1203 -0.9877 0
M  V30 26 Ga 1.6874 1.8845 -1.6827 0
M  V30 27 Ni 1.6818 1.6601 -2.3354 0
M  V30 28 Ni -1.3297 -3.0796 -3.1200 0
M  V30 29 Ga -1.7061 -2.6051 -3.4412 0
M  V30 30 Fe -1.9758 -1.9866 -3.7266 0
M  V30 31 Fe -1.8221 1.4404 -4.3128 0
M  V30 32 Ga -1.4955 2.0927 -4.2450 0
M  V30 33 Ni -1.0747 2.6124 -4.0940 0
M  V30 34 Ag -1.4021 2.4880 0.5244 0
M  V30 35 Pb -1.0691 2.6795 -0.3885 0
M  V30 36 Ag -0.8295 3.0550 -1.2740 0
M  V30 37 Ag 0.8490 -1.4859 -4.5288 0
M  V30 38 Pb 0.8854 -0.5097 -4.6765 0
M  V30 39 Ag 0.9364 0.4594 -4.8615 0
M  V30 40 Ag -1.0833 -2.5774 -0.3100 0
M  V30 41 Pb -1.2758 -1.9096 0.3968 0
M  V30 42 Ag -1.5772 -1.3973 1.1891 0
M  V30 END ATOM
M  V30 BEGIN BOND
M  V30 1 1 1 2
M  V30 2 1 1 3
M  V30 3 1 1 4
M  V30 4 1 1 5
M  V30 5 1 6 7
M  V30 6 1 6 8
M  V30 7 1 6 9
M  V30 8 1 6 10
M  V30 9 1 11 12
M  V30 10 1 11 13
M  V30 11 1 11 14
M  V30 12 1 11 15
M  V30 13 1 16 17
M  V30 14 1 17 18
M  V30 15 1 18 19
M  V30 16 1 19 20
M  V30 17 1 20 21
M  V30 18 1 22 23
M  V30 19 1 23 24
M  V30 20 1 24 25
M  V30 21 1 25 26
M  V30 22 1 26 27
M  V30 23 1 28 29
M  V30 24 1 29 30
M  V30 25 1 30 31
M  V30 26 1 31 32
M  V30 27 1 32 33
M  V30 28 1 34 35
M  V30 29 1 35 36
M  V30 30 1 37 38
M  V30 31 1 38 39
M  V30 32 1 40 41
M  V30 33 1 41 42
M  V30 34 1 2 16
M  V30 35 1 3 40
M  V30 36 1 4 28
M  V30 37 1 5 37
M  V30 38 1 7 34
M  V30 39 1 8 42
M  V30 40 1 9 22
M  V30 41 1 10 21
M  V30 42 1 12 27
M  V30 43 1 13 33
M  V30 44 1 14 36
M  V30 45 1 15 39
M  V30 END BOND
M  V30 END CTAB
M  END

$$$$
