
     RDKit          3D

  0  0  0  0  0  0  0  0  0  0999 V3000
M  V30 BEGIN CTAB
M  V30 COUNTS 6 5 0 0 0
M  V30 BEGIN ATOM
M  V30 1 Ni -3.1786 -0.1048 -0.0216 0
M  V30 2 Ga -2.4886 0.0094 0.0069 0
M  V30 3 Fe -1.7493 0.1318 0.0375 0
M  V30 4 Fe 1.7507 0.1146 0.0267 0
M  V30 5 Ga 2.4885 -0.0150 -0.0084 0
M  V30 6 Ni 3.1772 -0.1361 -0.0411 0
M  V30 END ATOM
M  V30 BEGIN BOND
M  V30 1 1 1 2
M  V30 2 1 2 3
M  V30 3 1 3 4
M  V30 4 1 4 5
M  V30 5 1 5 6
M  V30 END BOND
M  V30 END CTAB
M  END

$$$$
