
     RDKit          3D

  0  0  0  0  0  0  0  0  0  0999 V3000
M  V30 BEGIN CTAB
M  V30 COUNTS 36 39 0 0 0
M  V30 BEGIN ATOM
M  V30 1 Pd -0.6850 0.0023 2.4307 0
M  V30 2 Ba -0.7051 -0.9303 2.7988 0
M  V30 3 Ba 0.3069 -0.1429 2.3910 0
M  V30 4 Ba -1.6772 0.0497 2.3715 0
M  V30 5 Ba -0.6371 0.9521 2.1037 0
M  V30 6 Pd 1.9591 -0.5983 -1.4768 0
M  V30 7 Ba 1.7615 -0.0887 -2.3084 0
M  V30 8 Ba 2.1250 -0.9952 -0.5705 0
M  V30 9 Ba 1.1904 -1.2108 -1.6897 0
M  V30 10 Ba 2.7569 -0.0297 -1.2625 0
M  V30 11 Pd -1.8154 0.8494 -1.3591 0
M  V30 12 Ba -1.8441 -0.0752 -1.7278 0
M  V30 13 Ba -2.5051 0.6235 -0.6660 0
M  V30 14 Ba -1.1989 1.1095 -2.1071 0
M  V30 15 Ba -1.6428 1.7066 -0.8828 0
M  V30 16 Ni -0.5630 -1.5818 3.0163 0
M  V30 17 Ga 0.1091 -1.6637 2.8675 0
M  V30 18 Fe 0.7958 -1.5528 2.6077 0
M  V30 19 Fe 3.1093 -0.2748 0.3164 0
M  V30 20 Ga 3.3013 0.0678 -0.3139 0
M  V30 21 Ni 3.3001 0.3010 -0.9667 0
M  V30 22 Ag 0.1427 -2.0675 -2.0698 0
M  V30 23 Pb -0.7801 -1.7469 -2.1129 0
M  V30 24 Ag -1.6934 -1.3994 -2.1449 0
M  V30 25 Ag 1.3781 0.7091 -3.3869 0
M  V30 26 Pb 0.4846 1.0914 -3.3195 0
M  V30 27 Ag -0.4131 1.4561 -3.2175 0
M  V30 28 Ag -3.0519 0.0747 2.1340 0
M  V30 29 Pb -3.3070 0.2296 1.2066 0
M  V30 30 Ag -3.5243 0.3864 0.2698 0
M  V30 31 Ag -0.6362 2.2986 1.6999 0
M  V30 32 Pb -0.9555 2.5591 0.8131 0
M  V30 33 Ag -1.2785 2.7900 -0.0804 0
M  V30 34 Ag 1.6159 -0.6505 2.3576 0
M  V30 35 Pb 2.0510 -0.9601 1.5355 0
M  V30 36 Ag 2.5260 -1.2883 0.7431 0
M  V30 END ATOM
M  V30 BEGIN BOND
M  V30 1 1 1 2
M  V30 2 1 1 3
M  V30 3 1 1 4
M  V30 4 1 1 5
M  V30 5 1 6 7
M  V30 6 1 6 8
M  V30 7 1 6 9
M  V30 8 1 6 10
M  V30 9 1 11 12
M  V30 10 1 11 13
M  V30 11 1 11 14
M  V30 12 1 11 15
M  V30 13 1 16 17
M  V30 14 1 17 18
M  V30 15 1 18 19
M  V30 16 1 19 20
M  V30 17 1 20 21
M  V30 18 1 22 23
M  V30 19 1 23 24
M  V30 20 1 25 26
M  V30 21 1 26 27
M  V30 22 1 28 29
M  V30 23 1 29 30
M  V30 24 1 31 32
M  V30 25 1 32 33
M  V30 26 1 34 35
M  V30 27 1 35 36
M  V30 28 1 2 16
M  V30 29 1 3 34
M  V30 30 1 4 28
M  V30 31 1 5 31
M  V30 32 1 7 25
M  V30 33 1 8 36
M  V30 34 1 9 22
M  V30 35 1 10 21
M  V30 36 1 12 24
M  V30 37 1 13 30
M  V30 38 1 14 27
M  V30 39 1 15 33
M  V30 END BOND
M  V30 END CTAB
M  END

$$$$
