
     RDKit          3D

  0  0  0  0  0  0  0  0  0  0999 V3000
M  V30 BEGIN CTAB
M  V30 COUNTS 48 51 0 0 0
M  V30 BEGIN ATOM
M  V30 1 Pd -2.6147 2.0191 -1.9480 0
M  V30 2 Ba -1.7782 2.5118 -1.7047 0
M  V30 3 Ba -2.0863 1.3056 -2.4357 0
M  V30 4 Ba -3.4280 1.4929 -2.1108 0
M  V30 5 Ba -3.1760 2.6957 -1.4643 0
M  V30 6 Pd 1.7523 -1.5502 -1.6286 0
M  V30 7 Ba 1.7502 -2.5210 -1.8669 0
M  V30 8 Ba 0.9933 -1.3617 -2.2406 0
M  V30 9 Ba 1.6655 -0.6268 -1.2747 0
M  V30 10 Ba 2.5371 -1.6211 -1.0331 0
M  V30 11 Pd -1.3439 -1.2325 3.3281 0
M  V30 12 Ba -2.3125 -1.3677 3.0738 0
M  V30 13 Ba -1.1077 -1.9417 2.6575 0
M  V30 14 Ba -0.3760 -1.1617 3.6014 0
M  V30 15 Ba -1.5567 -0.4022 3.8332 0
M  V30 16 Ni -1.1912 2.8575 -1.5339 0
M  V30 17 Ga -0.5725 2.5243 -1.4083 0
M  V30 18 Fe 0.0874 2.1701 -1.2765 0
M  V30 19 Fe 2.7345 -0.0538 -0.6977 0
M  V30 20 Ga 3.0068 -0.7492 -0.6187 0
M  V30 21 Ni 3.0681 -1.4444 -0.6178 0
M  V30 22 Ni 1.4825 -0.0264 -0.9838 0
M  V30 23 Ga 0.8436 -0.0956 -0.7057 0
M  V30 24 Fe 0.1640 -0.2747 -0.4376 0
M  V30 25 Fe -2.6305 -1.1617 1.4640 0
M  V30 26 Ga -2.9140 -1.3322 2.1176 0
M  V30 27 Ni -2.9696 -1.4442 2.7955 0
M  V30 28 Ni 1.7258 -3.2195 -1.8818 0
M  V30 29 Ga 1.6216 -3.3989 -1.2192 0
M  V30 30 Fe 1.5439 -3.3794 -0.4732 0
M  V30 31 Fe 0.8417 -1.9942 2.6663 0
M  V30 32 Ga 0.6454 -1.5495 3.2411 0
M  V30 33 Ni 0.3153 -1.1599 3.7281 0
M  V30 34 Ni -3.9378 1.0429 -2.1691 0
M  V30 35 Ga -3.7493 0.4415 -1.8677 0
M  V30 36 Fe -3.4733 -0.1620 -1.4946 0
M  V30 37 Fe -1.7533 -2.0111 0.9460 0
M  V30 38 Ga -1.3447 -2.2412 1.5422 0
M  V30 39 Ni -0.9957 -2.3995 2.1301 0
M  V30 40 Ni -3.5388 3.1465 -1.0624 0
M  V30 41 Ga -3.3665 3.0699 -0.3980 0
M  V30 42 Fe -3.1161 2.9141 0.2882 0
M  V30 43 Fe -2.0509 1.2144 3.1549 0
M  V30 44 Ga -1.8672 0.7065 3.6750 0
M  V30 45 Ni -1.7148 0.2032 4.1275 0
M  V30 46 Ag -1.4824 0.3101 -3.2661 0
M  V30 47 Pb -0.7312 -0.3370 -3.1543 0
M  V30 48 Ag -0.0100 -1.0339 -3.1909 0
M  V30 END ATOM
M  V30 BEGIN BOND
M  V30 1 1 1 2
M  V30 2 1 1 3
M  V30 3 1 1 4
M  V30 4 1 1 5
M  V30 5 1 6 7
M  V30 6 1 6 8
M  V30 7 1 6 9
M  V30 8 1 6 10
M  V30 9 1 11 12
M  V30 10 1 11 13
M  V30 11 1 11 14
M  V30 12 1 11 15
M  V30 13 1 16 17
M  V30 14 1 17 18
M  V30 15 1 18 19
M  V30 16 1 19 20
M  V30 17 1 20 21
M  V30 18 1 22 23
M  V30 19 1 23 24
M  V30 20 1 24 25
M  V30 21 1 25 26
M  V30 22 1 26 27
M  V30 23 1 28 29
M  V30 24 1 29 30
M  V30 25 1 30 31
M  V30 26 1 31 32
M  V30 27 1 32 33
M  V30 28 1 34 35
M  V30 29 1 35 36
M  V30 30 1 36 37
M  V30 31 1 37 38
M  V30 32 1 38 39
M  V30 33 1 40 41
M  V30 34 1 41 42
M  V30 35 1 42 43
M  V30 36 1 43 44
M  V30 37 1 44 45
M  V30 38 1 46 47
M  V30 39 1 47 48
M  V30 40 1 2 16
M  V30 41 1 3 46
M  V30 42 1 4 34
M  V30 43 1 5 40
M  V30 44 1 7 28
M  V30 45 1 8 48
M  V30 46 1 9 22
M  V30 47 1 10 21
M  V30 48 1 12 27
M  V30 49 1 13 39
M  V30 50 1 14 33
M  V30 51 1 15 45
M  V30 END BOND
M  V30 END CTAB
M  END

$$$$
