
     RDKit          3D

  0  0  0  0  0  0  0  0  0  0999 V3000
M  V30 BEGIN CTAB
M  V30 COUNTS 39 42 0 0 0
M  V30 BEGIN ATOM
M  V30 1 Pd -0.8432 -2.6430 -0.8204 0
M  V30 2 Ba -0.0632 -3.2710 -0.7771 0
M  V30 3 Ba -0.8355 -2.4662 0.1695 0
M  V30 4 Ba -1.5399 -1.9204 -0.8122 0
M  V30 5 Ba -0.8473 -2.8232 -1.8150 0
M  V30 6 Pd 0.8510 1.2065 1.2595 0
M  V30 7 Ba 1.2592 0.4003 0.8339 0
M  V30 8 Ba 0.2417 0.5716 1.7388 0
M  V30 9 Ba 0.3693 2.0202 1.5925 0
M  V30 10 Ba 1.5257 1.7608 0.7678 0
M  V30 11 Pd -0.3658 0.0294 -3.0040 0
M  V30 12 Ba -0.9778 0.5692 -3.5849 0
M  V30 13 Ba -0.7899 0.4935 -2.2388 0
M  V30 14 Ba 0.2602 -0.4768 -2.4029 0
M  V30 15 Ba -0.1756 -0.6372 -3.7076 0
M  V30 16 Ni 0.5453 -3.6194 -0.7525 0
M  V30 17 Ga 1.0691 -3.1619 -0.7751 0
M  V30 18 Fe 1.5126 -2.5631 -0.7813 0
M  V30 19 Fe 2.4188 0.7634 -0.2126 0
M  V30 20 Ga 2.3001 1.4538 0.0390 0
M  V30 21 Ni 2.0408 2.0108 0.3636 0
M  V30 22 Ni -0.0138 2.5931 1.7264 0
M  V30 23 Ga -0.3898 2.7601 1.1634 0
M  V30 24 Fe -0.7272 2.8167 0.4997 0
M  V30 25 Fe -1.5651 1.9376 -2.7786 0
M  V30 26 Ga -1.5427 1.5188 -3.3956 0
M  V30 27 Ni -1.4157 1.0321 -3.8772 0
M  V30 28 Ag 1.7568 -0.7318 0.1791 0
M  V30 29 Pb 1.4534 -0.9557 -0.7244 0
M  V30 30 Ag 1.1720 -1.2110 -1.6266 0
M  V30 31 Ag -2.3422 -0.8098 -0.4967 0
M  V30 32 Pb -2.0594 0.0574 -0.8412 0
M  V30 33 Ag -1.7022 0.8635 -1.2552 0
M  V30 34 Ag -0.7023 -3.1947 -3.1690 0
M  V30 35 Pb -0.4235 -2.5400 -3.8402 0
M  V30 36 Ag -0.1547 -1.8172 -4.4400 0
M  V30 37 Ag -0.9872 -2.1439 1.5298 0
M  V30 38 Pb -0.7168 -1.2886 1.9327 0
M  V30 39 Ag -0.4673 -0.4520 2.3853 0
M  V30 END ATOM
M  V30 BEGIN BOND
M  V30 1 1 1 2
M  V30 2 1 1 3
M  V30 3 1 1 4
M  V30 4 1 1 5
M  V30 5 1 6 7
M  V30 6 1 6 8
M  V30 7 1 6 9
M  V30 8 1 6 10
M  V30 9 1 11 12
M  V30 10 1 11 13
M  V30 11 1 11 14
M  V30 12 1 11 15
M  V30 13 1 16 17
M  V30 14 1 17 18
M  V30 15 1 18 19
M  V30 16 1 19 20
M  V30 17 1 20 21
M  V30 18 1 22 23
M  V30 19 1 23 24
M  V30 20 1 24 25
M  V30 21 1 25 26
M  V30 22 1 26 27
M  V30 23 1 28 29
M  V30 24 1 29 30
M  V30 25 1 31 32
M  V30 26 1 32 33
M  V30 27 1 34 35
M  V30 28 1 35 36
M  V30 29 1 37 38
M  V30 30 1 38 39
M  V30 31 1 2 16
M  V30 32 1 3 37
M  V30 33 1 4 31
M  V30 34 1 5 34
M  V30 35 1 7 28
M  V30 36 1 8 39
M  V30 37 1 9 22
M  V30 38 1 10 21
M  V30 39 1 12 27
M  V30 40 1 13 33
M  V30 41 1 14 30
M  V30 42 1 15 36
M  V30 END BOND
M  V30 END CTAB
M  END

$$$$
