
     RDKit          3D

  0  0  0  0  0  0  0  0  0  0999 V3000
M  V30 BEGIN CTAB
M  V30 COUNTS 39 42 0 0 0
M  V30 BEGIN ATOM
M  V30 1 Pd -0.7720 -2.5199 -0.5855 0
M  V30 2 Ba -0.2350 -2.7621 -1.3960 0
M  V30 3 Ba 0.0490 -2.4955 -0.0034 0
M  V30 4 Ba -1.3167 -2.3453 0.2315 0
M  V30 5 Ba -1.5987 -2.4554 -1.1463 0
M  V30 6 Pd 2.8102 1.2777 1.0949 0
M  V30 7 Ba 1.9058 1.6509 1.3475 0
M  V30 8 Ba 2.5347 0.3215 1.2709 0
M  V30 9 Ba 3.1133 2.2122 0.8973 0
M  V30 10 Ba 3.7146 0.9413 0.8241 0
M  V30 11 Pd -2.4679 1.0651 -0.3791 0
M  V30 12 Ba -2.3496 1.7078 -1.1386 0
M  V30 13 Ba -2.6431 0.4585 0.3929 0
M  V30 14 Ba -1.9018 1.6282 0.2341 0
M  V30 15 Ba -2.9683 0.4398 -0.9796 0
M  V30 16 Ni 0.1618 -2.9197 -1.9527 0
M  V30 17 Ga 0.8122 -2.6896 -1.9062 0
M  V30 18 Fe 1.4757 -2.3914 -1.7666 0
M  V30 19 Fe 3.9108 -0.3626 -0.3066 0
M  V30 20 Ga 4.1886 0.1545 0.1440 0
M  V30 21 Ni 4.3156 0.6621 0.5950 0
M  V30 22 Ni 3.2696 2.8730 0.7222 0
M  V30 23 Ga 2.7776 3.1372 0.3156 0
M  V30 24 Fe 2.1824 3.2909 -0.0964 0
M  V30 25 Fe -0.9936 2.8281 -1.4661 0
M  V30 26 Ga -1.6512 2.5175 -1.6064 0
M  V30 27 Ni -2.2438 2.1653 -1.6599 0
M  V30 28 Ag 0.7338 2.3332 1.7339 0
M  V30 29 Pb -0.1926 2.2852 1.3976 0
M  V30 30 Ag -1.1517 2.3563 1.1753 0
M  V30 31 Ag -2.0748 -2.1227 1.3841 0
M  V30 32 Pb -2.5005 -1.2558 1.4612 0
M  V30 33 Ag -2.9020 -0.3744 1.4848 0
M  V30 34 Ag -2.7650 -2.2700 -1.9003 0
M  V30 35 Pb -3.1963 -1.3936 -1.8617 0
M  V30 36 Ag -3.5997 -0.5055 -1.7987 0
M  V30 37 Ag 1.1288 -2.4641 0.8977 0
M  V30 38 Pb 1.6930 -1.7006 1.1680 0
M  V30 39 Ag 2.3335 -1.0481 1.5391 0
M  V30 END ATOM
M  V30 BEGIN BOND
M  V30 1 1 1 2
M  V30 2 1 1 3
M  V30 3 1 1 4
M  V30 4 1 1 5
M  V30 5 1 6 7
M  V30 6 1 6 8
M  V30 7 1 6 9
M  V30 8 1 6 10
M  V30 9 1 11 12
M  V30 10 1 11 13
M  V30 11 1 11 14
M  V30 12 1 11 15
M  V30 13 1 16 17
M  V30 14 1 17 18
M  V30 15 1 18 19
M  V30 16 1 19 20
M  V30 17 1 20 21
M  V30 18 1 22 23
M  V30 19 1 23 24
M  V30 20 1 24 25
M  V30 21 1 25 26
M  V30 22 1 26 27
M  V30 23 1 28 29
M  V30 24 1 29 30
M  V30 25 1 31 32
M  V30 26 1 32 33
M  V30 27 1 34 35
M  V30 28 1 35 36
M  V30 29 1 37 38
M  V30 30 1 38 39
M  V30 31 1 2 16
M  V30 32 1 3 37
M  V30 33 1 4 31
M  V30 34 1 5 34
M  V30 35 1 7 28
M  V30 36 1 8 39
M  V30 37 1 9 22
M  V30 38 1 10 21
M  V30 39 1 12 27
M  V30 40 1 13 33
M  V30 41 1 14 30
M  V30 42 1 15 36
M  V30 END BOND
M  V30 END CTAB
M  END

$$$$
