
     RDKit          3D

  0  0  0  0  0  0  0  0  0  0999 V3000
M  V30 BEGIN CTAB
M  V30 COUNTS 45 48 0 0 0
M  V30 BEGIN ATOM
M  V30 1 Pd 0.0001 3.2803 -0.0001 0
M  V30 2 Ba -0.7211 3.9857 -0.0680 0
M  V30 3 Ba -0.7762 2.6228 -0.0197 0
M  V30 4 Ba 0.7206 3.9864 0.0682 0
M  V30 5 Ba 0.7763 2.6227 0.0197 0
M  V30 6 Pd -3.4974 -1.9268 -0.2507 0
M  V30 7 Ba -3.0848 -2.2545 -1.1154 0
M  V30 8 Ba -3.1316 -1.0171 -0.2715 0
M  V30 9 Ba -3.4843 -1.9495 0.7470 0
M  V30 10 Ba -4.1770 -1.3323 0.1951 0
M  V30 11 Pd 3.4959 -1.9263 0.2503 0
M  V30 12 Ba 3.0875 -2.2545 1.1169 0
M  V30 13 Ba 4.1757 -1.3309 -0.1945 0
M  V30 14 Ba 3.4846 -1.9493 -0.7469 0
M  V30 15 Ba 3.1314 -1.0174 0.2717 0
M  V30 16 Ni -1.2845 4.4003 -0.1035 0
M  V30 17 Ga -1.8831 4.0463 -0.0279 0
M  V30 18 Fe -2.4531 3.5712 0.0804 0
M  V30 19 Fe -4.2097 0.5602 0.4199 0
M  V30 20 Ga -4.3976 -0.1739 0.4676 0
M  V30 21 Ni -4.6050 -0.8548 0.4857 0
M  V30 22 Ni -3.3698 -2.0141 1.4183 0
M  V30 23 Ga -2.7493 -2.3004 1.4975 0
M  V30 24 Fe -2.0629 -2.5656 1.4973 0
M  V30 25 Fe 1.4117 -2.8077 1.6419 0
M  V30 26 Ga 2.1298 -2.6608 1.6851 0
M  V30 27 Ni 2.7951 -2.4849 1.7188 0
M  V30 28 Ni -2.7962 -2.4837 -1.7202 0
M  V30 29 Ga -2.1298 -2.6613 -1.6849 0
M  V30 30 Fe -1.4117 -2.8078 -1.6419 0
M  V30 31 Fe 2.0628 -2.5656 -1.4973 0
M  V30 32 Ga 2.7492 -2.3003 -1.4974 0
M  V30 33 Ni 3.3700 -2.0144 -1.4185 0
M  V30 34 Ni 1.2848 4.4000 0.1033 0
M  V30 35 Ga 1.8832 4.0462 0.0277 0
M  V30 36 Fe 2.4532 3.5711 -0.0800 0
M  V30 37 Fe 4.2101 0.5595 -0.4206 0
M  V30 38 Ga 4.3986 -0.1742 -0.4686 0
M  V30 39 Ni 4.6044 -0.8542 -0.4849 0
M  V30 40 Ag 2.0620 2.0228 -0.0075 0
M  V30 41 Pb 2.4601 1.1207 0.0627 0
M  V30 42 Ag 3.0994 0.3709 0.1194 0
M  V30 43 Ag -2.0620 2.0228 0.0075 0
M  V30 44 Pb -2.4600 1.1208 -0.0627 0
M  V30 45 Ag -3.0994 0.3715 -0.1193 0
M  V30 END ATOM
M  V30 BEGIN BOND
M  V30 1 1 1 2
M  V30 2 1 1 3
M  V30 3 1 1 4
M  V30 4 1 1 5
M  V30 5 1 6 7
M  V30 6 1 6 8
M  V30 7 1 6 9
M  V30 8 1 6 10
M  V30 9 1 11 12
M  V30 10 1 11 13
M  V30 11 1 11 14
M  V30 12 1 11 15
M  V30 13 1 16 17
M  V30 14 1 17 18
M  V30 15 1 18 19
M  V30 16 1 19 20
M  V30 17 1 20 21
M  V30 18 1 22 23
M  V30 19 1 23 24
M  V30 20 1 24 25
M  V30 21 1 25 26
M  V30 22 1 26 27
M  V30 23 1 28 29
M  V30 24 1 29 30
M  V30 25 1 30 31
M  V30 26 1 31 32
M  V30 27 1 32 33
M  V30 28 1 34 35
M  V30 29 1 35 36
M  V30 30 1 36 37
M  V30 31 1 37 38
M  V30 32 1 38 39
M  V30 33 1 40 41
M  V30 34 1 41 42
M  V30 35 1 43 44
M  V30 36 1 44 45
M  V30 37 1 2 16
M  V30 38 1 3 43
M  V30 39 1 4 34
M  V30 40 1 5 40
M  V30 41 1 7 28
M  V30 42 1 8 45
M  V30 43 1 9 22
M  V30 44 1 10 21
M  V30 45 1 12 27
M  V30 46 1 13 39
M  V30 47 1 14 33
M  V30 48 1 15 42
M  V30 END BOND
M  V30 END CTAB
M  END

$$$$
