
     RDKit          3D

  0  0  0  0  0  0  0  0  0  0999 V3000
M  V30 BEGIN CTAB
M  V30 COUNTS 45 48 0 0 0
M  V30 BEGIN ATOM
M  V30 1 Pd 0.5264 -1.7095 -1.3911 0
M  V30 2 Ba 0.5461 -2.1328 -0.4707 0
M  V30 3 Ba 1.2228 -1.1227 -1.0760 0
M  V30 4 Ba 0.5972 -1.3352 -2.3120 0
M  V30 5 Ba -0.1570 -2.2962 -1.7768 0
M  V30 6 Pd 1.8985 1.0900 3.2764 0
M  V30 7 Ba 2.7651 1.2606 2.8977 0
M  V30 8 Ba 1.9107 0.7306 2.3440 0
M  V30 9 Ba 0.9590 0.9623 3.5004 0
M  V30 10 Ba 2.1055 1.2824 4.2300 0
M  V30 11 Pd -3.1750 -0.3459 -0.8058 0
M  V30 12 Ba -3.6913 -1.0811 -0.4401 0
M  V30 13 Ba -3.4373 0.3062 -0.0727 0
M  V30 14 Ba -2.4627 0.2930 -1.1284 0
M  V30 15 Ba -2.9251 -1.0101 -1.5195 0
M  V30 16 Ni 0.5834 -2.4015 0.1826 0
M  V30 17 Ga 0.8962 -2.1309 0.7460 0
M  V30 18 Fe 1.2008 -1.8867 1.3972 0
M  V30 19 Fe 2.3135 -0.1364 4.2285 0
M  V30 20 Ga 2.3660 0.4608 4.6825 0
M  V30 21 Ni 2.2912 1.1260 4.8694 0
M  V30 22 Ni 0.3073 0.8320 3.5919 0
M  V30 23 Ga 0.0418 0.4242 3.1149 0
M  V30 24 Fe -0.2735 -0.0273 2.6186 0
M  V30 25 Fe -2.5622 -1.6084 0.5175 0
M  V30 26 Ga -3.2173 -1.7181 0.1883 0
M  V30 27 Ni -3.8379 -1.6341 -0.0902 0
M  V30 28 Ni 3.1945 1.3623 2.3718 0
M  V30 29 Ga 2.7907 1.4261 1.7725 0
M  V30 30 Fe 2.2750 1.4895 1.1918 0
M  V30 31 Fe -0.6532 1.0257 -0.7092 0
M  V30 32 Ga -1.3293 0.8542 -1.0256 0
M  V30 33 Ni -1.9639 0.7403 -1.3542 0
M  V30 34 Ni 0.6160 -1.0185 -2.9306 0
M  V30 35 Ga 0.3221 -0.4110 -2.8221 0
M  V30 36 Fe -0.0423 0.1497 -2.5231 0
M  V30 37 Fe -2.4722 1.4331 -0.3807 0
M  V30 38 Ga -3.0296 1.2659 0.0761 0
M  V30 39 Ni -3.5056 0.8609 0.3580 0
M  V30 40 Ag -1.0532 -2.9858 -2.5515 0
M  V30 41 Pb -1.8949 -2.5203 -2.5532 0
M  V30 42 Ag -2.7257 -2.0387 -2.4626 0
M  V30 43 Ag 2.2913 -0.4407 -0.5969 0
M  V30 44 Pb 2.2717 -0.0501 0.2930 0
M  V30 45 Ag 2.5046 0.3954 1.1039 0
M  V30 END ATOM
M  V30 BEGIN BOND
M  V30 1 1 1 2
M  V30 2 1 1 3
M  V30 3 1 1 4
M  V30 4 1 1 5
M  V30 5 1 6 7
M  V30 6 1 6 8
M  V30 7 1 6 9
M  V30 8 1 6 10
M  V30 9 1 11 12
M  V30 10 1 11 13
M  V30 11 1 11 14
M  V30 12 1 11 15
M  V30 13 1 16 17
M  V30 14 1 17 18
M  V30 15 1 18 19
M  V30 16 1 19 20
M  V30 17 1 20 21
M  V30 18 1 22 23
M  V30 19 1 23 24
M  V30 20 1 24 25
M  V30 21 1 25 26
M  V30 22 1 26 27
M  V30 23 1 28 29
M  V30 24 1 29 30
M  V30 25 1 30 31
M  V30 26 1 31 32
M  V30 27 1 32 33
M  V30 28 1 34 35
M  V30 29 1 35 36
M  V30 30 1 36 37
M  V30 31 1 37 38
M  V30 32 1 38 39
M  V30 33 1 40 41
M  V30 34 1 41 42
M  V30 35 1 43 44
M  V30 36 1 44 45
M  V30 37 1 2 16
M  V30 38 1 3 43
M  V30 39 1 4 34
M  V30 40 1 5 40
M  V30 41 1 7 28
M  V30 42 1 8 45
M  V30 43 1 9 22
M  V30 44 1 10 21
M  V30 45 1 12 27
M  V30 46 1 13 39
M  V30 47 1 14 33
M  V30 48 1 15 42
M  V30 END BOND
M  V30 END CTAB
M  END

$$$$
