
     RDKit          3D

  0  0  0  0  0  0  0  0  0  0999 V3000
M  V30 BEGIN CTAB
M  V30 COUNTS 45 48 0 0 0
M  V30 BEGIN ATOM
M  V30 1 Pd -1.3366 -1.2647 2.9757 0
M  V30 2 Ba -1.6924 -2.1822 3.1507 0
M  V30 3 Ba -1.7925 -1.3063 2.0669 0
M  V30 4 Ba -0.8960 -1.2851 3.8760 0
M  V30 5 Ba -0.9791 -0.3206 2.8880 0
M  V30 6 Pd -0.8862 -1.7574 -2.8696 0
M  V30 7 Ba -0.2666 -1.5671 -3.6396 0
M  V30 8 Ba -1.4885 -1.8544 -2.0594 0
M  V30 9 Ba -1.4505 -0.9839 -3.1408 0
M  V30 10 Ba -0.3674 -2.5802 -2.6588 0
M  V30 11 Pd 2.2996 2.7592 0.5308 0
M  V30 12 Ba 1.6068 3.4229 0.2480 0
M  V30 13 Ba 3.0304 2.1397 0.8338 0
M  V30 14 Ba 2.8405 2.9729 -0.2912 0
M  V30 15 Ba 1.6958 2.5204 1.3137 0
M  V30 16 Ni -1.9284 -2.8335 3.2417 0
M  V30 17 Ga -1.7810 -3.2346 2.7013 0
M  V30 18 Fe -1.5637 -3.5413 2.0671 0
M  V30 19 Fe -0.4114 -3.6506 -1.2217 0
M  V30 20 Ga -0.1791 -3.4341 -1.8901 0
M  V30 21 Ni -0.0103 -3.1572 -2.5004 0
M  V30 22 Ni -1.8468 -0.4406 -3.3313 0
M  V30 23 Ga -1.7010 0.1673 -3.0386 0
M  V30 24 Fe -1.5010 0.7931 -2.6932 0
M  V30 25 Fe 0.1436 3.2250 -0.7971 0
M  V30 26 Ga 0.6258 3.5906 -0.3643 0
M  V30 27 Ni 1.1126 3.8678 0.0385 0
M  V30 28 Ni 0.1911 -1.3879 -4.1410 0
M  V30 29 Ga 0.6235 -0.8568 -3.9812 0
M  V30 30 Fe 1.0689 -0.2913 -3.7550 0
M  V30 31 Fe 2.7448 2.2042 -1.9533 0
M  V30 32 Ga 2.9956 2.6756 -1.4251 0
M  V30 33 Ni 3.1905 3.0835 -0.8928 0
M  V30 34 Ni -0.5405 -1.2765 4.4738 0
M  V30 35 Ga 0.0954 -1.0221 4.3911 0
M  V30 36 Fe 0.7412 -0.7340 4.1801 0
M  V30 37 Fe 3.0524 0.9371 2.1726 0
M  V30 38 Ga 3.3442 1.3136 1.6066 0
M  V30 39 Ni 3.5297 1.6975 1.0623 0
M  V30 40 Ag -0.4938 0.9926 3.0816 0
M  V30 41 Pb 0.1767 1.5798 2.6452 0
M  V30 42 Ag 0.7766 2.3280 2.3744 0
M  V30 43 Ag -2.5893 -1.5358 0.9161 0
M  V30 44 Pb -2.4135 -1.6688 -0.0499 0
M  V30 45 Ag -2.4581 -1.8330 -1.0277 0
M  V30 END ATOM
M  V30 BEGIN BOND
M  V30 1 1 1 2
M  V30 2 1 1 3
M  V30 3 1 1 4
M  V30 4 1 1 5
M  V30 5 1 6 7
M  V30 6 1 6 8
M  V30 7 1 6 9
M  V30 8 1 6 10
M  V30 9 1 11 12
M  V30 10 1 11 13
M  V30 11 1 11 14
M  V30 12 1 11 15
M  V30 13 1 16 17
M  V30 14 1 17 18
M  V30 15 1 18 19
M  V30 16 1 19 20
M  V30 17 1 20 21
M  V30 18 1 22 23
M  V30 19 1 23 24
M  V30 20 1 24 25
M  V30 21 1 25 26
M  V30 22 1 26 27
M  V30 23 1 28 29
M  V30 24 1 29 30
M  V30 25 1 30 31
M  V30 26 1 31 32
M  V30 27 1 32 33
M  V30 28 1 34 35
M  V30 29 1 35 36
M  V30 30 1 36 37
M  V30 31 1 37 38
M  V30 32 1 38 39
M  V30 33 1 40 41
M  V30 34 1 41 42
M  V30 35 1 43 44
M  V30 36 1 44 45
M  V30 37 1 2 16
M  V30 38 1 3 43
M  V30 39 1 4 34
M  V30 40 1 5 40
M  V30 41 1 7 28
M  V30 42 1 8 45
M  V30 43 1 9 22
M  V30 44 1 10 21
M  V30 45 1 12 27
M  V30 46 1 13 39
M  V30 47 1 14 33
M  V30 48 1 15 42
M  V30 END BOND
M  V30 END CTAB
M  END

$$$$
