
     RDKit          3D

  0  0  0  0  0  0  0  0  0  0999 V3000
M  V30 BEGIN CTAB
M  V30 COUNTS 18 20 0 0 0
M  V30 BEGIN ATOM
M  V30 1 Pd 2.2175 -2.0223 2.3068 0
M  V30 2 Ba 2.3452 -1.5661 1.4261 0
M  V30 3 Ba 1.2963 -1.6388 2.3718 0
M  V30 4 Ba 2.0898 -2.4785 3.1875 0
M  V30 5 Ba 3.1388 -2.4058 2.2418 0
M  V30 6 Pd -2.2962 1.8323 -2.4037 0
M  V30 7 Ba -3.0244 2.5073 -2.2851 0
M  V30 8 Ba -2.5093 1.7737 -3.3789 0
M  V30 9 Ba -1.5680 1.1573 -2.5223 0
M  V30 10 Ba -2.0831 1.8909 -1.4284 0
M  V30 11 Ni -3.2379 2.4483 -3.2602 0
M  V30 12 Ni 3.0099 -2.8644 3.1211 0
M  V30 13 Ga -2.2045 -0.1815 2.6189 0
M  V30 14 Fe -1.7389 0.9660 2.4483 0
M  V30 15 Ga -1.2732 2.1134 2.2776 0
M  V30 16 Ga 2.8306 0.1673 -1.9205 0
M  V30 17 Fe 2.0149 -0.6203 -2.4467 0
M  V30 18 Ga 1.1992 -1.4078 -2.9729 0
M  V30 END ATOM
M  V30 BEGIN BOND
M  V30 1 1 1 2
M  V30 2 1 1 3
M  V30 3 1 1 4
M  V30 4 1 1 5
M  V30 5 1 6 7
M  V30 6 1 6 8
M  V30 7 1 6 9
M  V30 8 1 6 10
M  V30 9 1 13 14
M  V30 10 1 14 15
M  V30 11 1 16 17
M  V30 12 1 17 18
M  V30 13 1 2 16
M  V30 14 1 3 13
M  V30 15 1 4 12
M  V30 16 1 5 12
M  V30 17 1 7 11
M  V30 18 1 8 11
M  V30 19 1 9 18
M  V30 20 1 10 15
M  V30 END BOND
M  V30 END CTAB
M  END

$$$$
