
     RDKit          3D

  0  0  0  0  0  0  0  0  0  0999 V3000
M  V30 BEGIN CTAB
M  V30 COUNTS 18 20 0 0 0
M  V30 BEGIN ATOM
M  V30 1 Pd -0.1666 -1.2831 0.0239 0
M  V30 2 Ba 0.5231 -1.3076 -0.7000 0
M  V30 3 Ba -0.8789 -1.1245 -0.6601 0
M  V30 4 Ba -0.7236 -1.2877 0.8612 0
M  V30 5 Ba 0.4166 -1.4366 0.8287 0
M  V30 6 Pd 0.0503 0.6354 -1.1262 0
M  V30 7 Ba -0.4121 1.4614 -0.7865 0
M  V30 8 Ba 0.7280 1.3122 -0.8196 0
M  V30 9 Ba 0.6590 -0.1001 -1.4243 0
M  V30 10 Ba -0.7430 0.0833 -1.3836 0
M  V30 11 Ni -0.8920 -0.1529 -0.4233 0
M  V30 12 Ni 0.7975 -0.3732 -0.4722 0
M  V30 13 Ag 0.0137 2.6825 -0.2545 0
M  V30 14 Pb 0.3592 2.7911 -0.1990 0
M  V30 15 Ag 0.6614 2.5978 -0.2733 0
M  V30 16 Ag -0.4555 -1.4517 2.2239 0
M  V30 17 Pb -0.1291 -1.5099 2.3796 0
M  V30 18 Ag 0.1922 -1.5363 2.2054 0
M  V30 END ATOM
M  V30 BEGIN BOND
M  V30 1 1 1 2
M  V30 2 1 1 3
M  V30 3 1 1 4
M  V30 4 1 1 5
M  V30 5 1 6 7
M  V30 6 1 6 8
M  V30 7 1 6 9
M  V30 8 1 6 10
M  V30 9 1 13 14
M  V30 10 1 14 15
M  V30 11 1 16 17
M  V30 12 1 17 18
M  V30 13 1 2 12
M  V30 14 1 3 11
M  V30 15 1 4 16
M  V30 16 1 5 18
M  V30 17 1 7 13
M  V30 18 1 8 15
M  V30 19 1 9 12
M  V30 20 1 10 11
M  V30 END BOND
M  V30 END CTAB
M  END

$$$$
