
     RDKit          3D

  0  0  0  0  0  0  0  0  0  0999 V3000
M  V30 BEGIN CTAB
M  V30 COUNTS 18 20 0 0 0
M  V30 BEGIN ATOM
M  V30 1 Pd 4.6204 4.7722 5.7961 0
M  V30 2 Ba 5.5107 4.8669 5.3496 0
M  V30 3 Ba 5.0528 4.9369 6.6901 0
M  V30 4 Ba 3.7259 4.8914 6.2421 0
M  V30 5 Ba 4.1785 4.8212 4.8999 0
M  V30 6 Pd 4.5110 6.7123 5.9231 0
M  V30 7 Ba 4.9656 6.4823 6.7912 0
M  V30 8 Ba 5.4030 6.7767 5.4747 0
M  V30 9 Ba 4.0708 6.7310 5.0249 0
M  V30 10 Ba 3.6387 6.4368 6.3433 0
M  V30 11 Ni 3.5198 5.6966 5.6552 0
M  V30 12 Ni 5.5221 5.7653 6.3311 0
M  V30 13 Ag 3.5968 5.4894 3.8285 0
M  V30 14 Pb 3.5208 5.8225 3.7329 0
M  V30 15 Ag 3.5598 6.1468 3.8715 0
M  V30 16 Ag 6.5799 5.5918 4.8356 0
M  V30 17 Pb 6.6776 5.9308 4.7987 0
M  V30 18 Ag 6.5428 6.2491 4.8786 0
M  V30 END ATOM
M  V30 BEGIN BOND
M  V30 1 1 1 2
M  V30 2 1 1 3
M  V30 3 1 1 4
M  V30 4 1 1 5
M  V30 5 1 6 7
M  V30 6 1 6 8
M  V30 7 1 6 9
M  V30 8 1 6 10
M  V30 9 1 13 14
M  V30 10 1 14 15
M  V30 11 1 16 17
M  V30 12 1 17 18
M  V30 13 1 2 16
M  V30 14 1 3 12
M  V30 15 1 4 11
M  V30 16 1 5 13
M  V30 17 1 7 12
M  V30 18 1 8 18
M  V30 19 1 9 15
M  V30 20 1 10 11
M  V30 END BOND
M  V30 END CTAB
M  END

$$$$
