
     RDKit          3D

  0  0  0  0  0  0  0  0  0  0999 V3000
M  V30 BEGIN CTAB
M  V30 COUNTS 18 20 0 0 0
M  V30 BEGIN ATOM
M  V30 1 Pd 3.6242 4.1896 3.6368 0
M  V30 2 Ba 3.7028 4.8512 2.8910 0
M  V30 3 Ba 2.8370 4.6898 3.9977 0
M  V30 4 Ba 3.6544 3.4701 4.3224 0
M  V30 5 Ba 4.3889 3.6070 3.3830 0
M  V30 6 Pd 0.8492 4.2183 3.1331 0
M  V30 7 Ba 0.6766 3.3981 3.6786 0
M  V30 8 Ba 0.2647 3.8577 2.4062 0
M  V30 9 Ba 1.0211 5.0387 2.5876 0
M  V30 10 Ba 1.4337 4.5791 3.8600 0
M  V30 11 Ni 2.2226 4.1142 3.4579 0
M  V30 12 Ni 0.0777 3.0458 2.9594 0
M  V30 13 Ga 4.0005 7.3649 0.0568 0
M  V30 14 Fe 2.8371 7.7604 0.2857 0
M  V30 15 Ga 1.6736 8.1560 0.5147 0
M  V30 16 Ga 5.1277 0.3228 5.8558 0
M  V30 17 Fe 5.9324 0.4085 4.8907 0
M  V30 18 Ga 6.6667 0.6096 3.8873 0
M  V30 END ATOM
M  V30 BEGIN BOND
M  V30 1 1 1 2
M  V30 2 1 1 3
M  V30 3 1 1 4
M  V30 4 1 1 5
M  V30 5 1 6 7
M  V30 6 1 6 8
M  V30 7 1 6 9
M  V30 8 1 6 10
M  V30 9 1 13 14
M  V30 10 1 14 15
M  V30 11 1 16 17
M  V30 12 1 17 18
M  V30 13 1 2 13
M  V30 14 1 3 11
M  V30 15 1 4 16
M  V30 16 1 5 18
M  V30 17 1 7 12
M  V30 18 1 8 12
M  V30 19 1 9 15
M  V30 20 1 10 11
M  V30 END BOND
M  V30 END CTAB
M  END

$$$$
