
     RDKit          3D

  0  0  0  0  0  0  0  0  0  0999 V3000
M  V30 BEGIN CTAB
M  V30 COUNTS 18 20 0 0 0
M  V30 BEGIN ATOM
M  V30 1 Pd -0.2279 1.2333 2.3524 0
M  V30 2 Ba -0.4927 1.0015 1.4162 0
M  V30 3 Ba -0.7594 2.0786 2.2935 0
M  V30 4 Ba 0.1047 1.3460 3.2827 0
M  V30 5 Ba 0.3309 0.4321 2.5383 0
M  V30 6 Pd 0.4755 2.6898 0.7801 0
M  V30 7 Ba 1.1381 3.4031 1.0322 0
M  V30 8 Ba 1.3540 2.5273 0.3183 0
M  V30 9 Ba -0.0525 1.9156 0.4306 0
M  V30 10 Ba -0.3180 2.9926 1.3084 0
M  V30 11 Ni 0.0808 2.5978 2.1362 0
M  V30 12 Ni 0.3994 1.3099 1.0857 0
M  V30 13 Ag 2.4701 3.6734 0.7031 0
M  V30 14 Pb 2.6862 3.4800 0.4793 0
M  V30 15 Ag 2.5928 3.1759 0.2976 0
M  V30 16 Ga 2.0834 0.2221 6.3239 0
M  V30 17 Fe 2.3600 -0.7659 5.5934 0
M  V30 18 Ga 2.5576 -1.6929 4.7640 0
M  V30 END ATOM
M  V30 BEGIN BOND
M  V30 1 1 1 2
M  V30 2 1 1 3
M  V30 3 1 1 4
M  V30 4 1 1 5
M  V30 5 1 6 7
M  V30 6 1 6 8
M  V30 7 1 6 9
M  V30 8 1 6 10
M  V30 9 1 13 14
M  V30 10 1 14 15
M  V30 11 1 16 17
M  V30 12 1 17 18
M  V30 13 1 2 12
M  V30 14 1 3 11
M  V30 15 1 4 16
M  V30 16 1 5 18
M  V30 17 1 7 13
M  V30 18 1 8 15
M  V30 19 1 9 12
M  V30 20 1 10 11
M  V30 END BOND
M  V30 END CTAB
M  END

$$$$
