
     RDKit          3D

  0  0  0  0  0  0  0  0  0  0999 V3000
M  V30 BEGIN CTAB
M  V30 COUNTS 18 20 0 0 0
M  V30 BEGIN ATOM
M  V30 1 Pd 1.3436 1.8232 3.3821 0
M  V30 2 Ba 0.8284 0.9681 3.4458 0
M  V30 3 Ba 0.6764 2.2703 3.9781 0
M  V30 4 Ba 2.0718 1.4995 2.7873 0
M  V30 5 Ba 1.9421 2.6041 3.2385 0
M  V30 6 Pd -0.8093 1.6109 2.5821 0
M  V30 7 Ba -1.3779 1.1931 1.8546 0
M  V30 8 Ba -0.6156 1.5074 1.5925 0
M  V30 9 Ba -0.3864 0.7218 2.7609 0
M  V30 10 Ba -0.6069 1.8957 3.5193 0
M  V30 11 Ni 0.1155 2.4996 3.1824 0
M  V30 12 Ni 0.5082 1.0900 2.5062 0
M  V30 13 Ag -1.5489 0.8441 0.5123 0
M  V30 14 Pb -1.3161 0.9060 0.2612 0
M  V30 15 Ag -1.0139 1.0646 0.3284 0
M  V30 16 Ga 5.2729 1.9730 0.7984 0
M  V30 17 Fe 5.1958 3.1507 1.2383 0
M  V30 18 Ga 5.0012 4.2878 1.7437 0
M  V30 END ATOM
M  V30 BEGIN BOND
M  V30 1 1 1 2
M  V30 2 1 1 3
M  V30 3 1 1 4
M  V30 4 1 1 5
M  V30 5 1 6 7
M  V30 6 1 6 8
M  V30 7 1 6 9
M  V30 8 1 6 10
M  V30 9 1 13 14
M  V30 10 1 14 15
M  V30 11 1 16 17
M  V30 12 1 17 18
M  V30 13 1 2 12
M  V30 14 1 3 11
M  V30 15 1 4 16
M  V30 16 1 5 18
M  V30 17 1 7 13
M  V30 18 1 8 15
M  V30 19 1 9 12
M  V30 20 1 10 11
M  V30 END BOND
M  V30 END CTAB
M  END

$$$$
