
     RDKit          3D

  0  0  0  0  0  0  0  0  0  0999 V3000
M  V30 BEGIN CTAB
M  V30 COUNTS 18 20 0 0 0
M  V30 BEGIN ATOM
M  V30 1 Pd 0.5897 2.1798 2.1663 0
M  V30 2 Ba 1.0565 1.9346 3.0031 0
M  V30 3 Ba 0.9439 1.3287 1.7200 0
M  V30 4 Ba 0.0779 2.5368 1.3923 0
M  V30 5 Ba 0.1850 3.0319 2.4805 0
M  V30 6 Pd 0.9001 -0.9157 2.5013 0
M  V30 7 Ba 0.7149 -1.6867 3.1106 0
M  V30 8 Ba 0.5041 -1.4246 1.7370 0
M  V30 9 Ba 1.2918 -0.4121 3.2570 0
M  V30 10 Ba 1.0898 -0.1258 1.8774 0
M  V30 11 Ni 0.6709 0.6336 2.4167 0
M  V30 12 Ni 0.3251 -2.1982 2.3448 0
M  V30 13 Ag 1.6512 1.2417 4.0404 0
M  V30 14 Pb 1.7340 0.9298 4.1685 0
M  V30 15 Ag 1.7168 0.5877 4.1112 0
M  V30 16 Ga -2.1434 5.1189 -0.2889 0
M  V30 17 Fe -2.0716 5.6912 0.8307 0
M  V30 18 Ga -1.9186 6.1565 1.9911 0
M  V30 END ATOM
M  V30 BEGIN BOND
M  V30 1 1 1 2
M  V30 2 1 1 3
M  V30 3 1 1 4
M  V30 4 1 1 5
M  V30 5 1 6 7
M  V30 6 1 6 8
M  V30 7 1 6 9
M  V30 8 1 6 10
M  V30 9 1 13 14
M  V30 10 1 14 15
M  V30 11 1 16 17
M  V30 12 1 17 18
M  V30 13 1 2 13
M  V30 14 1 3 11
M  V30 15 1 4 16
M  V30 16 1 5 18
M  V30 17 1 7 12
M  V30 18 1 8 12
M  V30 19 1 9 15
M  V30 20 1 10 11
M  V30 END BOND
M  V30 END CTAB
M  END

$$$$
