
     RDKit          3D

  0  0  0  0  0  0  0  0  0  0999 V3000
M  V30 BEGIN CTAB
M  V30 COUNTS 18 20 0 0 0
M  V30 BEGIN ATOM
M  V30 1 Pd 5.3321 5.9444 5.5298 0
M  V30 2 Ba 6.2179 6.3151 5.2499 0
M  V30 3 Ba 5.7637 5.5102 6.3208 0
M  V30 4 Ba 4.4008 5.6394 5.6982 0
M  V30 5 Ba 4.7862 6.3223 4.7896 0
M  V30 6 Pd 6.9077 4.3981 5.0326 0
M  V30 7 Ba 6.6397 3.4414 4.9940 0
M  V30 8 Ba 7.0237 4.1233 4.0841 0
M  V30 9 Ba 7.2026 5.3491 4.9367 0
M  V30 10 Ba 6.7500 4.5454 6.0092 0
M  V30 11 Ni 5.7685 4.6338 5.8390 0
M  V30 12 Ni 6.3062 5.5913 4.5653 0
M  V30 13 Ga 6.0702 0.1622 3.1637 0
M  V30 14 Fe 6.4659 0.8221 2.1665 0
M  V30 15 Ga 6.8751 1.5910 1.2568 0
M  V30 16 Ga 0.7046 5.4371 4.8469 0
M  V30 17 Fe 1.0430 6.1559 3.8696 0
M  V30 18 Ga 1.5122 6.8683 2.9429 0
M  V30 END ATOM
M  V30 BEGIN BOND
M  V30 1 1 1 2
M  V30 2 1 1 3
M  V30 3 1 1 4
M  V30 4 1 1 5
M  V30 5 1 6 7
M  V30 6 1 6 8
M  V30 7 1 6 9
M  V30 8 1 6 10
M  V30 9 1 13 14
M  V30 10 1 14 15
M  V30 11 1 16 17
M  V30 12 1 17 18
M  V30 13 1 2 12
M  V30 14 1 3 11
M  V30 15 1 4 16
M  V30 16 1 5 18
M  V30 17 1 7 13
M  V30 18 1 8 15
M  V30 19 1 9 12
M  V30 20 1 10 11
M  V30 END BOND
M  V30 END CTAB
M  END

$$$$
