
     RDKit          3D

  0  0  0  0  0  0  0  0  0  0999 V3000
M  V30 BEGIN CTAB
M  V30 COUNTS 18 20 0 0 0
M  V30 BEGIN ATOM
M  V30 1 Pd 0.2055 -0.8450 0.4694 0
M  V30 2 Ba 0.9746 -0.2084 0.3931 0
M  V30 3 Ba 0.4049 -1.2082 -0.4444 0
M  V30 4 Ba -0.1165 -0.3702 1.2925 0
M  V30 5 Ba -0.5396 -1.5030 0.5631 0
M  V30 6 Pd -0.9051 0.1749 -0.3561 0
M  V30 7 Ba -0.5836 -0.3004 -1.1791 0
M  V30 8 Ba -0.2427 0.9095 -0.5117 0
M  V30 9 Ba -1.5908 -0.5376 -0.2182 0
M  V30 10 Ba -1.1050 0.5376 0.5577 0
M  V30 11 Ni -0.1192 0.5155 0.7972 0
M  V30 12 Ni 0.3718 -0.2735 -0.8382 0
M  V30 13 Ag -1.7909 -2.0949 0.4731 0
M  V30 14 Pb -2.0927 -2.0045 0.3388 0
M  V30 15 Ag -2.1955 -1.7234 0.1724 0
M  V30 16 Ga 3.8892 2.2124 0.1003 0
M  V30 17 Fe 3.1070 2.9761 -0.5030 0
M  V30 18 Ga 2.2764 3.6934 -1.0985 0
M  V30 END ATOM
M  V30 BEGIN BOND
M  V30 1 1 1 2
M  V30 2 1 1 3
M  V30 3 1 1 4
M  V30 4 1 1 5
M  V30 5 1 6 7
M  V30 6 1 6 8
M  V30 7 1 6 9
M  V30 8 1 6 10
M  V30 9 1 13 14
M  V30 10 1 14 15
M  V30 11 1 16 17
M  V30 12 1 17 18
M  V30 13 1 2 16
M  V30 14 1 3 12
M  V30 15 1 4 11
M  V30 16 1 5 13
M  V30 17 1 7 12
M  V30 18 1 8 18
M  V30 19 1 9 15
M  V30 20 1 10 11
M  V30 END BOND
M  V30 END CTAB
M  END

$$$$
