
     RDKit          3D

  0  0  0  0  0  0  0  0  0  0999 V3000
M  V30 BEGIN CTAB
M  V30 COUNTS 18 20 0 0 0
M  V30 BEGIN ATOM
M  V30 1 Pd -0.0405 -0.7798 -1.1435 0
M  V30 2 Ba -0.6589 -0.0161 -0.9557 0
M  V30 3 Ba -0.7822 -1.4333 -0.9681 0
M  V30 4 Ba 0.5865 -1.5544 -1.2667 0
M  V30 5 Ba 0.7336 -0.1455 -1.1550 0
M  V30 6 Pd 0.3389 -1.1991 0.6128 0
M  V30 7 Ba -0.4699 -1.7785 0.4780 0
M  V30 8 Ba -0.2293 -0.4907 1.0328 0
M  V30 9 Ba 1.1113 -0.5629 0.5935 0
M  V30 10 Ba 0.8886 -1.8883 0.1323 0
M  V30 11 Ni 1.1936 -1.2083 -0.5433 0
M  V30 12 Ni -0.9243 -1.0393 -0.0454 0
M  V30 13 Ag 1.8265 0.5182 -0.6106 0
M  V30 14 Pb 1.9965 0.5287 -0.3020 0
M  V30 15 Ag 1.9607 0.3699 0.0107 0
M  V30 16 Ga -2.9683 2.8432 0.0091 0
M  V30 17 Fe -2.7244 2.5758 1.2065 0
M  V30 18 Ga -2.4536 2.2751 2.3900 0
M  V30 END ATOM
M  V30 BEGIN BOND
M  V30 1 1 1 2
M  V30 2 1 1 3
M  V30 3 1 1 4
M  V30 4 1 1 5
M  V30 5 1 6 7
M  V30 6 1 6 8
M  V30 7 1 6 9
M  V30 8 1 6 10
M  V30 9 1 13 14
M  V30 10 1 14 15
M  V30 11 1 16 17
M  V30 12 1 17 18
M  V30 13 1 2 16
M  V30 14 1 3 12
M  V30 15 1 4 11
M  V30 16 1 5 13
M  V30 17 1 7 12
M  V30 18 1 8 18
M  V30 19 1 9 15
M  V30 20 1 10 11
M  V30 END BOND
M  V30 END CTAB
M  END

$$$$
