
     RDKit          3D

  0  0  0  0  0  0  0  0  0  0999 V3000
M  V30 BEGIN CTAB
M  V30 COUNTS 18 20 0 0 0
M  V30 BEGIN ATOM
M  V30 1 Pd 0.5213 0.6877 -0.6074 0
M  V30 2 Ba -0.3380 1.0332 -0.2605 0
M  V30 3 Ba 0.7426 0.3100 0.3186 0
M  V30 4 Ba 1.3477 0.3937 -1.0756 0
M  V30 5 Ba 0.4267 1.0034 -1.5454 0
M  V30 6 Pd -0.5910 -1.0290 1.7603 0
M  V30 7 Ba 0.0061 -1.7980 1.9885 0
M  V30 8 Ba -1.3828 -1.5484 2.0815 0
M  V30 9 Ba -1.1813 -0.2682 1.5345 0
M  V30 10 Ba 0.2199 -0.4967 1.4311 0
M  V30 11 Ni -0.1163 -0.2081 0.5109 0
M  V30 12 Ni -0.7855 -2.3168 2.3115 0
M  V30 13 Ag -1.5030 1.2209 0.4588 0
M  V30 14 Pb -1.7050 1.1039 0.7159 0
M  V30 15 Ag -1.7381 0.8581 0.9590 0
M  V30 16 Ga 3.5788 0.1113 -4.1366 0
M  V30 17 Fe 2.6463 0.7510 -4.6911 0
M  V30 18 Ga 1.6489 1.3887 -5.1211 0
M  V30 END ATOM
M  V30 BEGIN BOND
M  V30 1 1 1 2
M  V30 2 1 1 3
M  V30 3 1 1 4
M  V30 4 1 1 5
M  V30 5 1 6 7
M  V30 6 1 6 8
M  V30 7 1 6 9
M  V30 8 1 6 10
M  V30 9 1 13 14
M  V30 10 1 14 15
M  V30 11 1 16 17
M  V30 12 1 17 18
M  V30 13 1 2 13
M  V30 14 1 3 11
M  V30 15 1 4 16
M  V30 16 1 5 18
M  V30 17 1 7 12
M  V30 18 1 8 12
M  V30 19 1 9 15
M  V30 20 1 10 11
M  V30 END BOND
M  V30 END CTAB
M  END

$$$$
