
     RDKit          3D

  0  0  0  0  0  0  0  0  0  0999 V3000
M  V30 BEGIN CTAB
M  V30 COUNTS 18 20 0 0 0
M  V30 BEGIN ATOM
M  V30 1 Pd -0.6827 2.3186 0.2396 0
M  V30 2 Ba -0.8600 1.3593 0.4612 0
M  V30 3 Ba -0.7832 2.1190 -0.7392 0
M  V30 4 Ba -0.4426 3.2643 0.0021 0
M  V30 5 Ba -0.4195 2.4858 1.1907 0
M  V30 6 Pd 1.0960 2.1205 -0.2098 0
M  V30 7 Ba 0.6813 1.9559 -1.1092 0
M  V30 8 Ba 1.1537 1.1350 -0.0477 0
M  V30 9 Ba 1.3512 2.2885 0.7432 0
M  V30 10 Ba 0.9740 3.1064 -0.3558 0
M  V30 11 Ni 0.4343 3.1887 0.4890 0
M  V30 12 Ni -0.0587 1.4130 -0.6795 0
M  V30 13 Ag 0.4769 2.6323 2.2424 0
M  V30 14 Pb 0.8260 2.6196 2.2897 0
M  V30 15 Ag 1.1061 2.5622 2.0835 0
M  V30 16 Ga -1.2870 -2.3344 1.2446 0
M  V30 17 Fe -0.0829 -2.4908 0.9442 0
M  V30 18 Ga 1.1239 -2.6030 0.6351 0
M  V30 END ATOM
M  V30 BEGIN BOND
M  V30 1 1 1 2
M  V30 2 1 1 3
M  V30 3 1 1 4
M  V30 4 1 1 5
M  V30 5 1 6 7
M  V30 6 1 6 8
M  V30 7 1 6 9
M  V30 8 1 6 10
M  V30 9 1 13 14
M  V30 10 1 14 15
M  V30 11 1 16 17
M  V30 12 1 17 18
M  V30 13 1 2 16
M  V30 14 1 3 12
M  V30 15 1 4 11
M  V30 16 1 5 13
M  V30 17 1 7 12
M  V30 18 1 8 18
M  V30 19 1 9 15
M  V30 20 1 10 11
M  V30 END BOND
M  V30 END CTAB
M  END

$$$$
