
     RDKit          3D

  0  0  0  0  0  0  0  0  0  0999 V3000
M  V30 BEGIN CTAB
M  V30 COUNTS 18 20 0 0 0
M  V30 BEGIN ATOM
M  V30 1 Pd 0.6015 -0.6403 -0.3902 0
M  V30 2 Ba -0.2820 -0.7675 -0.8410 0
M  V30 3 Ba 0.6762 0.2717 -0.7937 0
M  V30 4 Ba 1.4617 -0.6394 0.1086 0
M  V30 5 Ba 0.6483 -1.5212 0.0685 0
M  V30 6 Pd -0.3118 1.9425 0.2800 0
M  V30 7 Ba 0.4141 2.0950 0.9508 0
M  V30 8 Ba -0.9845 2.3024 0.9266 0
M  V30 9 Ba -1.0379 1.7908 -0.3907 0
M  V30 10 Ba 0.3609 1.5827 -0.3666 0
M  V30 11 Ni 0.2386 0.6661 0.0144 0
M  V30 12 Ni -0.2548 2.4792 1.5871 0
M  V30 13 Ga -3.6396 -1.2501 -2.5538 0
M  V30 14 Fe -3.7183 -0.0176 -2.7466 0
M  V30 15 Ga -3.7971 1.2149 -2.9394 0
M  V30 16 Ga 4.0470 -2.2329 2.3899 0
M  V30 17 Fe 3.2350 -3.1957 2.3903 0
M  V30 18 Ga 2.3427 -4.0806 2.3058 0
M  V30 END ATOM
M  V30 BEGIN BOND
M  V30 1 1 1 2
M  V30 2 1 1 3
M  V30 3 1 1 4
M  V30 4 1 1 5
M  V30 5 1 6 7
M  V30 6 1 6 8
M  V30 7 1 6 9
M  V30 8 1 6 10
M  V30 9 1 13 14
M  V30 10 1 14 15
M  V30 11 1 16 17
M  V30 12 1 17 18
M  V30 13 1 2 13
M  V30 14 1 3 11
M  V30 15 1 4 16
M  V30 16 1 5 18
M  V30 17 1 7 12
M  V30 18 1 8 12
M  V30 19 1 9 15
M  V30 20 1 10 11
M  V30 END BOND
M  V30 END CTAB
M  END

$$$$
