
     RDKit          3D

  0  0  0  0  0  0  0  0  0  0999 V3000
M  V30 BEGIN CTAB
M  V30 COUNTS 18 20 0 0 0
M  V30 BEGIN ATOM
M  V30 1 Pd -1.1272 0.7434 0.3708 0
M  V30 2 Ba -1.6049 -0.1325 0.2991 0
M  V30 3 Ba -0.8528 0.5171 1.3057 0
M  V30 4 Ba -0.7037 1.6508 0.2772 0
M  V30 5 Ba -1.3153 1.1226 -0.5415 0
M  V30 6 Pd 0.3728 -0.8185 0.2581 0
M  V30 7 Ba 1.2054 -0.9210 -0.2978 0
M  V30 8 Ba 0.8470 -1.6825 0.4614 0
M  V30 9 Ba -0.5738 -1.0922 0.4291 0
M  V30 10 Ba -0.0341 -0.6262 1.1512 0
M  V30 11 Ni 0.0835 0.3545 0.9939 0
M  V30 12 Ni -0.8825 -0.4800 -0.2990 0
M  V30 13 Ag 2.2111 -1.8836 -0.4280 0
M  V30 14 Pb 2.2387 -2.1986 -0.2453 0
M  V30 15 Ag 2.0054 -2.3207 0.0077 0
M  V30 16 Ag -0.6396 2.6098 -0.7386 0
M  V30 17 Pb -0.7896 2.5890 -1.0721 0
M  V30 18 Ag -0.9870 2.3098 -1.2036 0
M  V30 END ATOM
M  V30 BEGIN BOND
M  V30 1 1 1 2
M  V30 2 1 1 3
M  V30 3 1 1 4
M  V30 4 1 1 5
M  V30 5 1 6 7
M  V30 6 1 6 8
M  V30 7 1 6 9
M  V30 8 1 6 10
M  V30 9 1 13 14
M  V30 10 1 14 15
M  V30 11 1 16 17
M  V30 12 1 17 18
M  V30 13 1 2 12
M  V30 14 1 3 11
M  V30 15 1 4 16
M  V30 16 1 5 18
M  V30 17 1 7 13
M  V30 18 1 8 15
M  V30 19 1 9 12
M  V30 20 1 10 11
M  V30 END BOND
M  V30 END CTAB
M  END

$$$$
