
     RDKit          3D

  0  0  0  0  0  0  0  0  0  0999 V3000
M  V30 BEGIN CTAB
M  V30 COUNTS 18 20 0 0 0
M  V30 BEGIN ATOM
M  V30 1 Pd 0.9314 -0.5034 0.4610 0
M  V30 2 Ba 0.9436 -0.4069 -0.5232 0
M  V30 3 Ba 0.5537 0.4446 0.5487 0
M  V30 4 Ba 0.9695 -0.7253 1.4294 0
M  V30 5 Ba 1.2929 -1.4282 0.5119 0
M  V30 6 Pd -1.2834 1.4474 -0.5777 0
M  V30 7 Ba -1.8371 1.8268 0.1636 0
M  V30 8 Ba -2.0607 1.5315 -1.2013 0
M  V30 9 Ba -0.7356 1.0721 -1.3107 0
M  V30 10 Ba -0.4871 1.3612 0.0607 0
M  V30 11 Ni -0.2309 0.3861 -0.1024 0
M  V30 12 Ni -2.6149 1.9091 -0.4595 0
M  V30 13 Ag 0.6705 -0.0390 -1.8271 0
M  V30 14 Pb 0.4691 0.1509 -2.0368 0
M  V30 15 Ag 0.2025 0.3732 -2.0465 0
M  V30 16 Ga 1.7350 -3.0460 4.3373 0
M  V30 17 Fe 2.0915 -3.8333 3.4211 0
M  V30 18 Ga 2.4126 -4.5191 2.4146 0
M  V30 END ATOM
M  V30 BEGIN BOND
M  V30 1 1 1 2
M  V30 2 1 1 3
M  V30 3 1 1 4
M  V30 4 1 1 5
M  V30 5 1 6 7
M  V30 6 1 6 8
M  V30 7 1 6 9
M  V30 8 1 6 10
M  V30 9 1 13 14
M  V30 10 1 14 15
M  V30 11 1 16 17
M  V30 12 1 17 18
M  V30 13 1 2 13
M  V30 14 1 3 11
M  V30 15 1 4 16
M  V30 16 1 5 18
M  V30 17 1 7 12
M  V30 18 1 8 12
M  V30 19 1 9 15
M  V30 20 1 10 11
M  V30 END BOND
M  V30 END CTAB
M  END

$$$$
