
     RDKit          3D

  0  0  0  0  0  0  0  0  0  0999 V3000
M  V30 BEGIN CTAB
M  V30 COUNTS 18 20 0 0 0
M  V30 BEGIN ATOM
M  V30 1 Pd 7.3297 9.9018 4.6899 0
M  V30 2 Ba 7.1014 10.0802 5.6475 0
M  V30 3 Ba 8.0230 9.2327 4.9813 0
M  V30 4 Ba 7.4319 9.5518 3.7516 0
M  V30 5 Ba 6.5078 10.4006 4.4128 0
M  V30 6 Pd 6.2739 8.2678 4.7733 0
M  V30 7 Ba 7.1819 7.9310 5.0477 0
M  V30 8 Ba 6.0620 8.4716 5.7296 0
M  V30 9 Ba 5.4685 8.7920 4.4950 0
M  V30 10 Ba 6.5908 8.2502 3.8180 0
M  V30 11 Ni 6.4584 9.2558 3.7363 0
M  V30 12 Ni 7.3505 8.7742 5.5919 0
M  V30 13 Ag 5.1584 10.5073 4.0960 0
M  V30 14 Pb 4.8734 10.2972 4.0739 0
M  V30 15 Ag 4.8007 9.9536 4.1243 0
M  V30 16 Ag 6.4874 9.7899 6.8605 0
M  V30 17 Pb 6.2797 9.5380 6.9995 0
M  V30 18 Ag 6.1296 9.2362 6.8888 0
M  V30 END ATOM
M  V30 BEGIN BOND
M  V30 1 1 1 2
M  V30 2 1 1 3
M  V30 3 1 1 4
M  V30 4 1 1 5
M  V30 5 1 6 7
M  V30 6 1 6 8
M  V30 7 1 6 9
M  V30 8 1 6 10
M  V30 9 1 13 14
M  V30 10 1 14 15
M  V30 11 1 16 17
M  V30 12 1 17 18
M  V30 13 1 2 16
M  V30 14 1 3 12
M  V30 15 1 4 11
M  V30 16 1 5 13
M  V30 17 1 7 12
M  V30 18 1 8 18
M  V30 19 1 9 15
M  V30 20 1 10 11
M  V30 END BOND
M  V30 END CTAB
M  END

$$$$
