
     RDKit          3D

  0  0  0  0  0  0  0  0  0  0999 V3000
M  V30 BEGIN CTAB
M  V30 COUNTS 34 36 0 0 0
M  V30 BEGIN ATOM
M  V30 1 Ag -0.0412 -0.0238 4.4583 0
M  V30 2 Fe -1.2494 -0.7213 3.9071 0
M  V30 3 Fe 1.1698 -0.7213 3.9135 0
M  V30 4 Fe -0.0398 1.3738 3.9135 0
M  V30 5 Ag -3.5872 -2.0711 -1.3702 0
M  V30 6 Fe -3.5478 -2.0483 0.1291 0
M  V30 7 Fe -3.5426 -0.6486 -1.8440 0
M  V30 8 Fe -2.3330 -2.7437 -1.8440 0
M  V30 9 Ag 3.5358 -2.0711 -1.3512 0
M  V30 10 Fe 3.4884 -2.0484 0.1479 0
M  V30 11 Fe 2.2840 -2.7437 -1.8317 0
M  V30 12 Fe 3.4936 -0.6486 -1.8252 0
M  V30 13 Ag -0.0258 4.0976 -1.3512 0
M  V30 14 Fe -0.0297 4.0452 0.1479 0
M  V30 15 Fe 1.1851 3.3499 -1.8252 0
M  V30 16 Fe -1.2341 3.3499 -1.8317 0
M  V30 17 Pb -2.0687 -1.1944 3.5831 0
M  V30 18 Ba -2.7906 -1.6111 2.3360 0
M  V30 19 Pb -3.5618 -2.0564 1.1290 0
M  V30 20 Pb 1.9909 -1.1944 3.5939 0
M  V30 21 Ba 2.7193 -1.6111 2.3507 0
M  V30 22 Pb 3.4970 -2.0564 1.1478 0
M  V30 23 Pb -0.0389 2.3213 3.5939 0
M  V30 24 Ba -0.0356 3.1606 2.3507 0
M  V30 25 Pb -0.0324 4.0567 1.1478 0
M  V30 26 Pb -1.5232 -3.2232 -2.1820 0
M  V30 27 Ba -0.0236 -3.1948 -2.1579 0
M  V30 28 Pb 1.4760 -3.2232 -2.1740 0
M  V30 29 Pb -3.5529 0.2925 -2.1820 0
M  V30 30 Ba -2.7786 1.5769 -2.1579 0
M  V30 31 Pb -2.0533 2.8899 -2.1740 0
M  V30 32 Pb 3.5058 0.2925 -2.1632 0
M  V30 33 Ba 2.7313 1.5769 -2.1432 0
M  V30 34 Pb 2.0062 2.8899 -2.1632 0
M  V30 END ATOM
M  V30 BEGIN BOND
M  V30 1 1 1 2
M  V30 2 1 1 3
M  V30 3 1 1 4
M  V30 4 1 5 6
M  V30 5 1 5 7
M  V30 6 1 5 8
M  V30 7 1 9 10
M  V30 8 1 9 11
M  V30 9 1 9 12
M  V30 10 1 13 14
M  V30 11 1 13 15
M  V30 12 1 13 16
M  V30 13 1 17 18
M  V30 14 1 18 19
M  V30 15 1 20 21
M  V30 16 1 21 22
M  V30 17 1 23 24
M  V30 18 1 24 25
M  V30 19 1 26 27
M  V30 20 1 27 28
M  V30 21 1 29 30
M  V30 22 1 30 31
M  V30 23 1 32 33
M  V30 24 1 33 34
M  V30 25 1 2 17
M  V30 26 1 6 19
M  V30 27 1 3 20
M  V30 28 1 10 22
M  V30 29 1 4 23
M  V30 30 1 14 25
M  V30 31 1 8 26
M  V30 32 1 11 28
M  V30 33 1 7 29
M  V30 34 1 16 31
M  V30 35 1 12 32
M  V30 36 1 15 34
M  V30 END BOND
M  V30 END CTAB
M  END

$$$$
