
     RDKit          3D

  0  0  0  0  0  0  0  0  0  0999 V3000
M  V30 BEGIN CTAB
M  V30 COUNTS 34 36 0 0 0
M  V30 BEGIN ATOM
M  V30 1 Ag -0.0577 -0.0333 2.8220 0
M  V30 2 Fe -1.3019 -0.7516 3.2535 0
M  V30 3 Fe 1.1783 -0.7517 3.2761 0
M  V30 4 Fe -0.0618 1.3963 3.2761 0
M  V30 5 Ag -2.2411 -1.2939 -0.8241 0
M  V30 6 Fe -3.0300 -1.7494 0.3676 0
M  V30 7 Fe -3.0116 -0.3067 -1.6499 0
M  V30 8 Fe -1.7714 -2.4547 -1.6499 0
M  V30 9 Ag 2.1916 -1.2940 -0.7837 0
M  V30 10 Fe 2.9586 -1.7495 0.4222 0
M  V30 11 Fe 1.7370 -2.4548 -1.6179 0
M  V30 12 Fe 2.9771 -0.3069 -1.5953 0
M  V30 13 Ag -0.0248 2.5450 -0.7837 0
M  V30 14 Fe -0.0358 3.4370 0.4222 0
M  V30 15 Fe 1.2227 2.7316 -1.5953 0
M  V30 16 Fe -1.2574 2.7317 -1.6179 0
M  V30 17 Pb -2.1162 -1.2218 3.5938 0
M  V30 18 Ba -2.8251 -1.6311 2.3369 0
M  V30 19 Pb -3.5932 -2.0746 1.1272 0
M  V30 20 Pb 1.9863 -1.2219 3.6312 0
M  V30 21 Ba 2.7179 -1.6312 2.3874 0
M  V30 22 Pb 3.5080 -2.0747 1.1919 0
M  V30 23 Pb -0.0651 2.3311 3.6312 0
M  V30 24 Ba -0.0537 3.1694 2.3874 0
M  V30 25 Pb -0.0428 4.0753 1.1919 0
M  V30 26 Pb -1.5115 -3.2413 -2.2100 0
M  V30 27 Ba -0.0123 -3.2075 -2.1721 0
M  V30 28 Pb 1.4873 -3.2414 -2.1826 0
M  V30 29 Pb -3.5628 0.3117 -2.2100 0
M  V30 30 Ba -2.7839 1.5931 -2.1721 0
M  V30 31 Pb -2.0635 2.9087 -2.1826 0
M  V30 32 Pb 3.5384 0.3115 -2.1453 0
M  V30 33 Ba 2.7591 1.5930 -2.1216 0
M  V30 34 Pb 2.0390 2.9086 -2.1453 0
M  V30 END ATOM
M  V30 BEGIN BOND
M  V30 1 1 1 2
M  V30 2 1 1 3
M  V30 3 1 1 4
M  V30 4 1 5 6
M  V30 5 1 5 7
M  V30 6 1 5 8
M  V30 7 1 9 10
M  V30 8 1 9 11
M  V30 9 1 9 12
M  V30 10 1 13 14
M  V30 11 1 13 15
M  V30 12 1 13 16
M  V30 13 1 17 18
M  V30 14 1 18 19
M  V30 15 1 20 21
M  V30 16 1 21 22
M  V30 17 1 23 24
M  V30 18 1 24 25
M  V30 19 1 26 27
M  V30 20 1 27 28
M  V30 21 1 29 30
M  V30 22 1 30 31
M  V30 23 1 32 33
M  V30 24 1 33 34
M  V30 25 1 2 17
M  V30 26 1 6 19
M  V30 27 1 3 20
M  V30 28 1 10 22
M  V30 29 1 4 23
M  V30 30 1 14 25
M  V30 31 1 8 26
M  V30 32 1 11 28
M  V30 33 1 7 29
M  V30 34 1 16 31
M  V30 35 1 12 32
M  V30 36 1 15 34
M  V30 END BOND
M  V30 END CTAB
M  END

$$$$
