
     RDKit          3D

  0  0  0  0  0  0  0  0  0  0999 V3000
M  V30 BEGIN CTAB
M  V30 COUNTS 51 54 0 0 0
M  V30 BEGIN ATOM
M  V30 1 Ag -2.1187 -1.1700 -1.7044 0
M  V30 2 Fe -3.2612 -2.0364 -1.2647 0
M  V30 3 Fe -2.9842 -0.3551 -2.6194 0
M  V30 4 Fe -1.7591 -2.1307 -2.7987 0
M  V30 5 Ag -1.5019 -1.8182 2.4119 0
M  V30 6 Fe -2.6936 -2.6455 2.0293 0
M  V30 7 Fe -1.5670 -0.8240 1.2906 0
M  V30 8 Fe -2.3061 -1.0326 3.4054 0
M  V30 9 Ag 1.9674 -1.1475 -1.7470 0
M  V30 10 Fe 1.5957 -2.1122 -2.8336 0
M  V30 11 Fe 2.8046 -0.3232 -2.6797 0
M  V30 12 Fe 3.1283 -2.0012 -1.3313 0
M  V30 13 Ag 1.4436 -1.8020 2.3812 0
M  V30 14 Fe 2.6362 -2.6162 1.9738 0
M  V30 15 Fe 2.2596 -1.0076 3.3578 0
M  V30 16 Fe 1.4744 -0.8073 1.2589 0
M  V30 17 Ag -0.0966 2.1846 -1.9653 0
M  V30 18 Fe -1.2125 2.4269 -2.9378 0
M  V30 19 Fe -0.0998 3.6184 -1.5249 0
M  V30 20 Fe 0.9960 2.4390 -2.9609 0
M  V30 21 Ag -0.0530 1.9619 2.1014 0
M  V30 22 Fe -1.1356 2.0951 3.1304 0
M  V30 23 Fe 1.0493 2.1071 3.1077 0
M  V30 24 Fe -0.0639 3.4354 1.8217 0
M  V30 25 Pb -4.0322 -2.6321 -1.0409 0
M  V30 26 Ba -3.7235 -2.8838 0.4056 0
M  V30 27 Pb -3.5063 -3.2025 1.8554 0
M  V30 28 Pb -1.5845 -2.7808 -3.5380 0
M  V30 29 Ba -0.0856 -2.7419 -3.5189 0
M  V30 30 Pb 1.4129 -2.7643 -3.5692 0
M  V30 31 Pb 3.9103 -2.5883 -1.1236 0
M  V30 32 Ba 3.6347 -2.8433 0.3289 0
M  V30 33 Pb 3.4511 -3.1642 1.7829 0
M  V30 34 Pb -1.5580 -0.1607 0.5423 0
M  V30 35 Ba -0.0581 -0.1304 0.5017 0
M  V30 36 Pb 1.4426 -0.1443 0.5110 0
M  V30 37 Pb -3.5795 0.1408 -3.2518 0
M  V30 38 Ba -2.7423 1.3777 -3.3910 0
M  V30 39 Pb -1.9527 2.6397 -3.5754 0
M  V30 40 Pb 3.3811 0.1791 -3.3244 0
M  V30 41 Ba 2.5275 1.4066 -3.4460 0
M  V30 42 Pb 1.7204 2.6599 -3.6138 0
M  V30 43 Pb -2.8796 -0.5646 4.0783 0
M  V30 44 Ba -2.3309 0.8223 3.9202 0
M  V30 45 Pb -1.8409 2.2366 3.8246 0
M  V30 46 Pb 2.8417 -0.5332 4.0187 0
M  V30 47 Ba 2.2747 0.8475 3.8723 0
M  V30 48 Pb 1.7672 2.2564 3.7871 0
M  V30 49 Pb -0.1028 4.5913 -1.2942 0
M  V30 50 Ba -0.0865 4.4642 0.1999 0
M  V30 51 Pb -0.0707 4.4278 1.6989 0
M  V30 END ATOM
M  V30 BEGIN BOND
M  V30 1 1 1 2
M  V30 2 1 1 3
M  V30 3 1 1 4
M  V30 4 1 5 6
M  V30 5 1 5 7
M  V30 6 1 5 8
M  V30 7 1 9 10
M  V30 8 1 9 11
M  V30 9 1 9 12
M  V30 10 1 13 14
M  V30 11 1 13 15
M  V30 12 1 13 16
M  V30 13 1 17 18
M  V30 14 1 17 19
M  V30 15 1 17 20
M  V30 16 1 21 22
M  V30 17 1 21 23
M  V30 18 1 21 24
M  V30 19 1 25 26
M  V30 20 1 26 27
M  V30 21 1 28 29
M  V30 22 1 29 30
M  V30 23 1 31 32
M  V30 24 1 32 33
M  V30 25 1 34 35
M  V30 26 1 35 36
M  V30 27 1 37 38
M  V30 28 1 38 39
M  V30 29 1 40 41
M  V30 30 1 41 42
M  V30 31 1 43 44
M  V30 32 1 44 45
M  V30 33 1 46 47
M  V30 34 1 47 48
M  V30 35 1 49 50
M  V30 36 1 50 51
M  V30 37 1 2 25
M  V30 38 1 6 27
M  V30 39 1 4 28
M  V30 40 1 10 30
M  V30 41 1 12 31
M  V30 42 1 14 33
M  V30 43 1 7 34
M  V30 44 1 16 36
M  V30 45 1 3 37
M  V30 46 1 18 39
M  V30 47 1 11 40
M  V30 48 1 20 42
M  V30 49 1 8 43
M  V30 50 1 22 45
M  V30 51 1 15 46
M  V30 52 1 23 48
M  V30 53 1 19 49
M  V30 54 1 24 51
M  V30 END BOND
M  V30 END CTAB
M  END

$$$$
