
     RDKit          3D

  0  0  0  0  0  0  0  0  0  0999 V3000
M  V30 BEGIN CTAB
M  V30 COUNTS 51 54 0 0 0
M  V30 BEGIN ATOM
M  V30 1 Ag -3.5545 -2.0403 -3.1923 0
M  V30 2 Fe -4.5480 -2.6136 -2.2264 0
M  V30 3 Fe -3.4716 -0.6091 -2.7484 0
M  V30 4 Fe -2.2760 -2.6942 -2.7561 0
M  V30 5 Ag -3.5531 -2.0628 3.1266 0
M  V30 6 Fe -4.5470 -2.6292 2.1571 0
M  V30 7 Fe -2.2748 -2.7136 2.6852 0
M  V30 8 Fe -3.4704 -0.6285 2.6928 0
M  V30 9 Ag 3.5063 -1.8891 -3.4448 0
M  V30 10 Fe 2.3239 -2.6353 -2.9021 0
M  V30 11 Fe 2.9344 -0.9134 -4.4293 0
M  V30 12 Fe 3.9885 -1.0521 -2.2969 0
M  V30 13 Ag 3.5078 -1.9134 3.3769 0
M  V30 14 Fe 3.9895 -1.0682 2.2348 0
M  V30 15 Fe 2.9364 -0.9448 4.3686 0
M  V30 16 Fe 2.3252 -2.6558 2.8295 0
M  V30 17 Ag 0.1418 3.9784 -3.4231 0
M  V30 18 Fe -1.0978 3.3319 -2.8800 0
M  V30 19 Fe 1.1114 3.9655 -2.2783 0
M  V30 20 Fe 0.6918 2.9976 -4.4148 0
M  V30 21 Ag 0.1433 3.9541 3.3986 0
M  V30 22 Fe -1.0965 3.3115 2.8515 0
M  V30 23 Fe 0.6938 2.9662 4.3830 0
M  V30 24 Fe 1.1124 3.9493 2.2533 0
M  V30 25 Pb -5.1723 -2.9741 -1.5341 0
M  V30 26 Ba -5.2180 -3.0059 -0.0359 0
M  V30 27 Pb -5.1716 -2.9848 1.4625 0
M  V30 28 Pb -1.4531 -3.1689 -2.4416 0
M  V30 29 Ba 0.0457 -3.1322 -2.5021 0
M  V30 30 Pb 1.5458 -3.1414 -2.5304 0
M  V30 31 Pb 4.3088 -0.4961 -1.5295 0
M  V30 32 Ba 4.3094 -0.5009 -0.0291 0
M  V30 33 Pb 4.3095 -0.5068 1.4712 0
M  V30 34 Pb -1.4520 -3.1861 2.3669 0
M  V30 35 Ba 0.0468 -3.1498 2.4270 0
M  V30 36 Pb 1.5469 -3.1592 2.4546 0
M  V30 37 Pb -3.4647 0.3392 -2.4286 0
M  V30 38 Ba -2.6761 1.6144 -2.4845 0
M  V30 39 Pb -1.9264 2.9139 -2.5081 0
M  V30 40 Pb 2.5516 -0.2602 -5.0815 0
M  V30 41 Ba 1.8057 1.0403 -5.0848 0
M  V30 42 Pb 1.0601 2.3408 -5.0719 0
M  V30 43 Pb -3.4636 0.3221 2.3798 0
M  V30 44 Ba -2.6750 1.5969 2.4445 0
M  V30 45 Pb -1.9253 2.8962 2.4769 0
M  V30 46 Pb 2.5539 -0.2962 5.0256 0
M  V30 47 Ba 1.8080 1.0042 5.0385 0
M  V30 48 Pb 1.0624 2.3048 5.0352 0
M  V30 49 Pb 1.7554 3.9568 -1.5130 0
M  V30 50 Ba 1.7564 3.9515 -0.0127 0
M  V30 51 Pb 1.7561 3.9462 1.4877 0
M  V30 END ATOM
M  V30 BEGIN BOND
M  V30 1 1 1 2
M  V30 2 1 1 3
M  V30 3 1 1 4
M  V30 4 1 5 6
M  V30 5 1 5 7
M  V30 6 1 5 8
M  V30 7 1 9 10
M  V30 8 1 9 11
M  V30 9 1 9 12
M  V30 10 1 13 14
M  V30 11 1 13 15
M  V30 12 1 13 16
M  V30 13 1 17 18
M  V30 14 1 17 19
M  V30 15 1 17 20
M  V30 16 1 21 22
M  V30 17 1 21 23
M  V30 18 1 21 24
M  V30 19 1 25 26
M  V30 20 1 26 27
M  V30 21 1 28 29
M  V30 22 1 29 30
M  V30 23 1 31 32
M  V30 24 1 32 33
M  V30 25 1 34 35
M  V30 26 1 35 36
M  V30 27 1 37 38
M  V30 28 1 38 39
M  V30 29 1 40 41
M  V30 30 1 41 42
M  V30 31 1 43 44
M  V30 32 1 44 45
M  V30 33 1 46 47
M  V30 34 1 47 48
M  V30 35 1 49 50
M  V30 36 1 50 51
M  V30 37 1 2 25
M  V30 38 1 6 27
M  V30 39 1 4 28
M  V30 40 1 10 30
M  V30 41 1 12 31
M  V30 42 1 14 33
M  V30 43 1 7 34
M  V30 44 1 16 36
M  V30 45 1 3 37
M  V30 46 1 18 39
M  V30 47 1 11 40
M  V30 48 1 20 42
M  V30 49 1 8 43
M  V30 50 1 22 45
M  V30 51 1 15 46
M  V30 52 1 23 48
M  V30 53 1 19 49
M  V30 54 1 24 51
M  V30 END BOND
M  V30 END CTAB
M  END

$$$$
