
     RDKit          3D

  0  0  0  0  0  0  0  0  0  0999 V3000
M  V30 BEGIN CTAB
M  V30 COUNTS 51 54 0 0 0
M  V30 BEGIN ATOM
M  V30 1 Ag -3.8798 -2.2834 -3.8872 0
M  V30 2 Fe -4.3092 -2.5460 -2.4741 0
M  V30 3 Fe -3.7258 -0.8018 -4.0637 0
M  V30 4 Fe -2.5091 -2.8624 -4.0769 0
M  V30 5 Ag -3.8405 -2.3097 3.8394 0
M  V30 6 Fe -4.2842 -2.5627 2.4291 0
M  V30 7 Fe -2.4680 -2.8899 4.0112 0
M  V30 8 Fe -3.6847 -0.8294 4.0245 0
M  V30 9 Ag 3.7214 -2.2089 -3.9255 0
M  V30 10 Fe 2.3605 -2.8146 -4.1015 0
M  V30 11 Fe 3.5367 -0.7306 -4.1003 0
M  V30 12 Fe 4.1701 -2.4629 -2.5169 0
M  V30 13 Ag 3.7607 -2.2352 3.8011 0
M  V30 14 Fe 4.1950 -2.4796 2.3863 0
M  V30 15 Fe 3.5778 -0.7582 3.9878 0
M  V30 16 Fe 2.4016 -2.8422 3.9867 0
M  V30 17 Ag -0.1436 4.3368 -3.8836 0
M  V30 18 Fe -1.3323 3.4393 -4.0614 0
M  V30 19 Fe -0.1414 4.8389 -2.4701 0
M  V30 20 Fe 1.0606 3.4628 -4.0735 0
M  V30 21 Ag -0.1043 4.3104 3.8430 0
M  V30 22 Fe -1.2912 3.4118 4.0267 0
M  V30 23 Fe 1.1017 3.4352 4.0147 0
M  V30 24 Fe -0.1164 4.8222 2.4331 0
M  V30 25 Pb -4.5683 -2.7051 -1.5215 0
M  V30 26 Ba -4.5821 -2.7229 -0.0217 0
M  V30 27 Pb -4.5531 -2.7153 1.4780 0
M  V30 28 Pb -1.5706 -3.1901 -4.1856 0
M  V30 29 Ba -0.0711 -3.2225 -4.2077 0
M  V30 30 Pb 1.4276 -3.1607 -4.2007 0
M  V30 31 Pb 4.4419 -2.6168 -1.5670 0
M  V30 32 Ba 4.4712 -2.6341 -0.0673 0
M  V30 33 Pb 4.4572 -2.6270 1.4326 0
M  V30 34 Pb -1.5285 -3.2184 4.1082 0
M  V30 35 Ba -0.0288 -3.2509 4.1148 0
M  V30 36 Pb 1.4697 -3.1890 4.0930 0
M  V30 37 Pb -3.5601 0.1793 -4.1640 0
M  V30 38 Ba -2.8644 1.5081 -4.1774 0
M  V30 39 Pb -2.0864 2.7905 -4.1626 0
M  V30 40 Pb 3.3508 0.2470 -4.1989 0
M  V30 41 Ba 2.6291 1.5619 -4.2051 0
M  V30 42 Pb 1.8263 2.8289 -4.1823 0
M  V30 43 Pb -3.5180 0.1510 4.1298 0
M  V30 44 Ba -2.8221 1.4797 4.1451 0
M  V30 45 Pb -2.0443 2.7622 4.1312 0
M  V30 46 Pb 3.3930 0.2187 4.0949 0
M  V30 47 Ba 2.6714 1.5336 4.1174 0
M  V30 48 Pb 1.8685 2.8006 4.1114 0
M  V30 49 Pb -0.1395 5.1422 -1.5172 0
M  V30 50 Ba -0.1321 5.1620 -0.0174 0
M  V30 51 Pb -0.1243 5.1320 1.4823 0
M  V30 END ATOM
M  V30 BEGIN BOND
M  V30 1 1 1 2
M  V30 2 1 1 3
M  V30 3 1 1 4
M  V30 4 1 5 6
M  V30 5 1 5 7
M  V30 6 1 5 8
M  V30 7 1 9 10
M  V30 8 1 9 11
M  V30 9 1 9 12
M  V30 10 1 13 14
M  V30 11 1 13 15
M  V30 12 1 13 16
M  V30 13 1 17 18
M  V30 14 1 17 19
M  V30 15 1 17 20
M  V30 16 1 21 22
M  V30 17 1 21 23
M  V30 18 1 21 24
M  V30 19 1 25 26
M  V30 20 1 26 27
M  V30 21 1 28 29
M  V30 22 1 29 30
M  V30 23 1 31 32
M  V30 24 1 32 33
M  V30 25 1 34 35
M  V30 26 1 35 36
M  V30 27 1 37 38
M  V30 28 1 38 39
M  V30 29 1 40 41
M  V30 30 1 41 42
M  V30 31 1 43 44
M  V30 32 1 44 45
M  V30 33 1 46 47
M  V30 34 1 47 48
M  V30 35 1 49 50
M  V30 36 1 50 51
M  V30 37 1 2 25
M  V30 38 1 6 27
M  V30 39 1 4 28
M  V30 40 1 10 30
M  V30 41 1 12 31
M  V30 42 1 14 33
M  V30 43 1 7 34
M  V30 44 1 16 36
M  V30 45 1 3 37
M  V30 46 1 18 39
M  V30 47 1 11 40
M  V30 48 1 20 42
M  V30 49 1 8 43
M  V30 50 1 22 45
M  V30 51 1 15 46
M  V30 52 1 23 48
M  V30 53 1 19 49
M  V30 54 1 24 51
M  V30 END BOND
M  V30 END CTAB
M  END

$$$$
