
     RDKit          3D

  0  0  0  0  0  0  0  0  0  0999 V3000
M  V30 BEGIN CTAB
M  V30 COUNTS 34 36 0 0 0
M  V30 BEGIN ATOM
M  V30 1 Ag 3.2686 -1.0016 3.2674 0
M  V30 2 Fe 2.2077 -0.8563 2.2169 0
M  V30 3 Fe 3.1006 0.0456 2.2066 0
M  V30 4 Fe 2.2077 0.0470 3.1086 0
M  V30 5 Ag -3.2670 -1.0026 3.2685 0
M  V30 6 Fe -2.2066 -0.8570 2.2176 0
M  V30 7 Fe -2.2066 0.0463 3.1093 0
M  V30 8 Fe -3.0997 0.0447 2.2077 0
M  V30 9 Ag 3.2672 -1.0027 -3.2683 0
M  V30 10 Fe 2.2067 -0.8570 -2.2174 0
M  V30 11 Fe 2.2065 0.0460 -3.1094 0
M  V30 12 Fe 3.0997 0.0448 -2.2077 0
M  V30 13 Ag -3.2683 -1.0031 -3.2672 0
M  V30 14 Fe -2.2075 -0.8574 -2.2167 0
M  V30 15 Fe -3.1006 0.0443 -2.2066 0
M  V30 16 Fe -2.2077 0.0457 -3.1086 0
M  V30 17 Pb 1.5004 -0.7599 1.5165 0
M  V30 18 Ba 0.0004 -0.7601 1.5167 0
M  V30 19 Pb -1.4996 -0.7603 1.5170 0
M  V30 20 Pb 1.5005 0.7461 3.0031 0
M  V30 21 Ba 0.0005 0.7459 3.0033 0
M  V30 22 Pb -1.4995 0.7456 3.0036 0
M  V30 23 Pb 1.4997 -0.7604 -1.5168 0
M  V30 24 Ba -0.0003 -0.7605 -1.5166 0
M  V30 25 Pb -1.5003 -0.7606 -1.5163 0
M  V30 26 Pb 1.4994 0.7452 -3.0038 0
M  V30 27 Ba -0.0006 0.7452 -3.0035 0
M  V30 28 Pb -1.5006 0.7450 -3.0033 0
M  V30 29 Pb 2.9889 0.7437 1.4994 0
M  V30 30 Ba 2.9886 0.7435 -0.0006 0
M  V30 31 Pb 2.9883 0.7432 -1.5006 0
M  V30 32 Pb -2.9885 0.7429 1.5004 0
M  V30 33 Ba -2.9888 0.7428 0.0004 0
M  V30 34 Pb -2.9891 0.7427 -1.4996 0
M  V30 END ATOM
M  V30 BEGIN BOND
M  V30 1 1 1 2
M  V30 2 1 1 3
M  V30 3 1 1 4
M  V30 4 1 5 6
M  V30 5 1 5 7
M  V30 6 1 5 8
M  V30 7 1 9 10
M  V30 8 1 9 11
M  V30 9 1 9 12
M  V30 10 1 13 14
M  V30 11 1 13 15
M  V30 12 1 13 16
M  V30 13 1 17 18
M  V30 14 1 18 19
M  V30 15 1 20 21
M  V30 16 1 21 22
M  V30 17 1 23 24
M  V30 18 1 24 25
M  V30 19 1 26 27
M  V30 20 1 27 28
M  V30 21 1 29 30
M  V30 22 1 30 31
M  V30 23 1 32 33
M  V30 24 1 33 34
M  V30 25 1 2 17
M  V30 26 1 6 19
M  V30 27 1 4 20
M  V30 28 1 7 22
M  V30 29 1 10 23
M  V30 30 1 14 25
M  V30 31 1 11 26
M  V30 32 1 16 28
M  V30 33 1 3 29
M  V30 34 1 12 31
M  V30 35 1 8 32
M  V30 36 1 15 34
M  V30 END BOND
M  V30 END CTAB
M  END

$$$$
