
     RDKit          3D

  0  0  0  0  0  0  0  0  0  0999 V3000
M  V30 BEGIN CTAB
M  V30 COUNTS 34 36 0 0 0
M  V30 BEGIN ATOM
M  V30 1 Ag -0.0513 -0.0296 4.8231 0
M  V30 2 Fe -0.8850 -0.5109 3.6711 0
M  V30 3 Fe 0.7932 -0.5110 3.6790 0
M  V30 4 Fe -0.0459 0.9424 3.6790 0
M  V30 5 Ag -4.0002 -2.3095 -1.7044 0
M  V30 6 Fe -3.4268 -1.9784 -0.3574 0
M  V30 7 Fe -3.3312 -0.9750 -1.5694 0
M  V30 8 Fe -2.5100 -2.3974 -1.5694 0
M  V30 9 Ag 3.9590 -2.3095 -1.6667 0
M  V30 10 Fe 3.3729 -1.9785 -0.3253 0
M  V30 11 Fe 2.4676 -2.3975 -1.5459 0
M  V30 12 Fe 3.2888 -0.9750 -1.5381 0
M  V30 13 Ag -0.0206 4.5834 -1.6667 0
M  V30 14 Fe -0.0270 3.9103 -0.3253 0
M  V30 15 Fe 0.8000 3.3357 -1.5381 0
M  V30 16 Fe -0.8425 3.3357 -1.5459 0
M  V30 17 Pb -1.4800 -0.8545 2.9427 0
M  V30 18 Ba -2.2435 -1.2953 1.7277 0
M  V30 19 Pb -3.0304 -1.7496 0.5327 0
M  V30 20 Pb 1.3951 -0.8545 2.9563 0
M  V30 21 Ba 2.1700 -1.2953 1.7486 0
M  V30 22 Pb 2.9682 -1.7497 0.5611 0
M  V30 23 Pb -0.0425 1.6354 2.9563 0
M  V30 24 Ba -0.0368 2.5270 1.7486 0
M  V30 25 Pb -0.0311 3.4454 0.5611 0
M  V30 26 Pb -1.5204 -2.4725 -1.4557 0
M  V30 27 Ba -0.0216 -2.4606 -1.4658 0
M  V30 28 Pb 1.4770 -2.4725 -1.4415 0
M  V30 29 Pb -2.9014 -0.0805 -1.4557 0
M  V30 30 Ba -2.1418 1.2116 -1.4658 0
M  V30 31 Pb -1.4027 2.5154 -1.4415 0
M  V30 32 Pb 2.8580 -0.0805 -1.4284 0
M  V30 33 Ba 2.0985 1.2116 -1.4457 0
M  V30 34 Pb 1.3593 2.5153 -1.4284 0
M  V30 END ATOM
M  V30 BEGIN BOND
M  V30 1 1 1 2
M  V30 2 1 1 3
M  V30 3 1 1 4
M  V30 4 1 5 6
M  V30 5 1 5 7
M  V30 6 1 5 8
M  V30 7 1 9 10
M  V30 8 1 9 11
M  V30 9 1 9 12
M  V30 10 1 13 14
M  V30 11 1 13 15
M  V30 12 1 13 16
M  V30 13 1 17 18
M  V30 14 1 18 19
M  V30 15 1 20 21
M  V30 16 1 21 22
M  V30 17 1 23 24
M  V30 18 1 24 25
M  V30 19 1 26 27
M  V30 20 1 27 28
M  V30 21 1 29 30
M  V30 22 1 30 31
M  V30 23 1 32 33
M  V30 24 1 33 34
M  V30 25 1 2 17
M  V30 26 1 6 19
M  V30 27 1 3 20
M  V30 28 1 10 22
M  V30 29 1 4 23
M  V30 30 1 14 25
M  V30 31 1 8 26
M  V30 32 1 11 28
M  V30 33 1 7 29
M  V30 34 1 16 31
M  V30 35 1 12 32
M  V30 36 1 15 34
M  V30 END BOND
M  V30 END CTAB
M  END

$$$$
