
     RDKit          3D

  0  0  0  0  0  0  0  0  0  0999 V3000
M  V30 BEGIN CTAB
M  V30 COUNTS 34 36 0 0 0
M  V30 BEGIN ATOM
M  V30 1 Ag 1.6500 0.6758 1.5395 0
M  V30 2 Fe 1.5626 -0.7704 1.1514 0
M  V30 3 Fe 3.1464 0.5713 1.5370 0
M  V30 4 Fe 1.5724 0.2885 2.9866 0
M  V30 5 Ag -1.6505 0.6759 1.5390 0
M  V30 6 Fe -1.5630 -0.7703 1.1509 0
M  V30 7 Fe -1.5733 0.2886 2.9861 0
M  V30 8 Fe -3.1468 0.5714 1.5360 0
M  V30 9 Ag 1.6505 0.6759 -1.5390 0
M  V30 10 Fe 1.5630 -0.7703 -1.1509 0
M  V30 11 Fe 1.5733 0.2886 -2.9861 0
M  V30 12 Fe 3.1468 0.5714 -1.5360 0
M  V30 13 Ag -1.6500 0.6758 -1.5395 0
M  V30 14 Fe -1.5626 -0.7704 -1.1514 0
M  V30 15 Fe -3.1464 0.5713 -1.5370 0
M  V30 16 Fe -1.5724 0.2885 -2.9866 0
M  V30 17 Pb 1.4988 -1.7344 0.8937 0
M  V30 18 Ba -0.0002 -1.7457 0.8908 0
M  V30 19 Pb -1.4991 -1.7343 0.8932 0
M  V30 20 Pb 1.5004 0.0306 3.9501 0
M  V30 21 Ba -0.0006 0.0286 3.9573 0
M  V30 22 Pb -1.5016 0.0306 3.9496 0
M  V30 23 Pb 1.4991 -1.7343 -0.8932 0
M  V30 24 Ba 0.0002 -1.7457 -0.8908 0
M  V30 25 Pb -1.4988 -1.7344 -0.8937 0
M  V30 26 Pb 1.5016 0.0306 -3.9496 0
M  V30 27 Ba 0.0006 0.0286 -3.9573 0
M  V30 28 Pb -1.5004 0.0306 -3.9501 0
M  V30 29 Pb 4.1433 0.5016 1.5005 0
M  V30 30 Ba 4.1687 0.4999 0.0007 0
M  V30 31 Pb 4.1437 0.5017 -1.4992 0
M  V30 32 Pb -4.1437 0.5017 1.4992 0
M  V30 33 Ba -4.1687 0.4999 -0.0007 0
M  V30 34 Pb -4.1433 0.5016 -1.5005 0
M  V30 END ATOM
M  V30 BEGIN BOND
M  V30 1 1 1 2
M  V30 2 1 1 3
M  V30 3 1 1 4
M  V30 4 1 5 6
M  V30 5 1 5 7
M  V30 6 1 5 8
M  V30 7 1 9 10
M  V30 8 1 9 11
M  V30 9 1 9 12
M  V30 10 1 13 14
M  V30 11 1 13 15
M  V30 12 1 13 16
M  V30 13 1 17 18
M  V30 14 1 18 19
M  V30 15 1 20 21
M  V30 16 1 21 22
M  V30 17 1 23 24
M  V30 18 1 24 25
M  V30 19 1 26 27
M  V30 20 1 27 28
M  V30 21 1 29 30
M  V30 22 1 30 31
M  V30 23 1 32 33
M  V30 24 1 33 34
M  V30 25 1 2 17
M  V30 26 1 6 19
M  V30 27 1 4 20
M  V30 28 1 7 22
M  V30 29 1 10 23
M  V30 30 1 14 25
M  V30 31 1 11 26
M  V30 32 1 16 28
M  V30 33 1 3 29
M  V30 34 1 12 31
M  V30 35 1 8 32
M  V30 36 1 15 34
M  V30 END BOND
M  V30 END CTAB
M  END

$$$$
