
     RDKit          3D

  0  0  0  0  0  0  0  0  0  0999 V3000
M  V30 BEGIN CTAB
M  V30 COUNTS 34 36 0 0 0
M  V30 BEGIN ATOM
M  V30 1 Ag 3.0986 0.2817 3.2671 0
M  V30 2 Fe 2.1598 -0.6269 4.0043 0
M  V30 3 Fe 3.7186 -0.5787 2.2063 0
M  V30 4 Fe 2.1595 1.1902 2.5304 0
M  V30 5 Ag -3.0972 0.2816 3.2684 0
M  V30 6 Fe -2.1581 -0.6269 4.0052 0
M  V30 7 Fe -2.1585 1.1901 2.5313 0
M  V30 8 Fe -3.7177 -0.5788 2.2079 0
M  V30 9 Ag 3.0972 0.2816 -3.2684 0
M  V30 10 Fe 2.1581 -0.6269 -4.0052 0
M  V30 11 Fe 2.1584 1.1902 -2.5313 0
M  V30 12 Fe 3.7177 -0.5787 -2.2079 0
M  V30 13 Ag -3.0986 0.2816 -3.2671 0
M  V30 14 Fe -2.1598 -0.6269 -4.0043 0
M  V30 15 Fe -3.7186 -0.5788 -2.2063 0
M  V30 16 Fe -2.1595 1.1901 -2.5304 0
M  V30 17 Pb 1.5006 -1.2107 4.4781 0
M  V30 18 Ba 0.0010 -1.2362 4.4990 0
M  V30 19 Pb -1.4987 -1.2108 4.4787 0
M  V30 20 Pb 1.5001 1.7740 2.0569 0
M  V30 21 Ba 0.0004 1.7995 2.0366 0
M  V30 22 Pb -1.4992 1.7740 2.0575 0
M  V30 23 Pb 1.4987 -1.2108 -4.4787 0
M  V30 24 Ba -0.0009 -1.2362 -4.4990 0
M  V30 25 Pb -1.5006 -1.2108 -4.4780 0
M  V30 26 Pb 1.4992 1.7740 -2.0575 0
M  V30 27 Ba -0.0004 1.7994 -2.0366 0
M  V30 28 Pb -1.5001 1.7740 -2.0569 0
M  V30 29 Pb 4.1320 -1.1523 1.4991 0
M  V30 30 Ba 4.1316 -1.1523 -0.0009 0
M  V30 31 Pb 4.1313 -1.1523 -1.5009 0
M  V30 32 Pb -4.1313 -1.1524 1.5009 0
M  V30 33 Ba -4.1316 -1.1524 0.0009 0
M  V30 34 Pb -4.1319 -1.1524 -1.4991 0
M  V30 END ATOM
M  V30 BEGIN BOND
M  V30 1 1 1 2
M  V30 2 1 1 3
M  V30 3 1 1 4
M  V30 4 1 5 6
M  V30 5 1 5 7
M  V30 6 1 5 8
M  V30 7 1 9 10
M  V30 8 1 9 11
M  V30 9 1 9 12
M  V30 10 1 13 14
M  V30 11 1 13 15
M  V30 12 1 13 16
M  V30 13 1 17 18
M  V30 14 1 18 19
M  V30 15 1 20 21
M  V30 16 1 21 22
M  V30 17 1 23 24
M  V30 18 1 24 25
M  V30 19 1 26 27
M  V30 20 1 27 28
M  V30 21 1 29 30
M  V30 22 1 30 31
M  V30 23 1 32 33
M  V30 24 1 33 34
M  V30 25 1 2 17
M  V30 26 1 6 19
M  V30 27 1 4 20
M  V30 28 1 7 22
M  V30 29 1 10 23
M  V30 30 1 14 25
M  V30 31 1 11 26
M  V30 32 1 16 28
M  V30 33 1 3 29
M  V30 34 1 12 31
M  V30 35 1 8 32
M  V30 36 1 15 34
M  V30 END BOND
M  V30 END CTAB
M  END

$$$$
