
     RDKit          3D

  0  0  0  0  0  0  0  0  0  0999 V3000
M  V30 BEGIN CTAB
M  V30 COUNTS 34 36 0 0 0
M  V30 BEGIN ATOM
M  V30 1 Ag -0.0768 -0.0443 4.8810 0
M  V30 2 Fe -1.0968 -0.6332 3.9522 0
M  V30 3 Fe 0.9617 -0.6333 3.9728 0
M  V30 4 Fe -0.0676 1.1495 3.9728 0
M  V30 5 Ag -3.9215 -2.2641 -1.5545 0
M  V30 6 Fe -3.5318 -2.0391 -0.1236 0
M  V30 7 Fe -3.5149 -0.8408 -1.7974 0
M  V30 8 Fe -2.4856 -2.6236 -1.7974 0
M  V30 9 Ag 3.8964 -2.2643 -1.4760 0
M  V30 10 Fe 3.4780 -2.0393 -0.0532 0
M  V30 11 Fe 2.4656 -2.6237 -1.7477 0
M  V30 12 Fe 3.4948 -0.8410 -1.7270 0
M  V30 13 Ag -0.0128 4.5065 -1.4760 0
M  V30 14 Fe -0.0271 4.0316 -0.0532 0
M  V30 15 Fe 1.0191 3.4471 -1.7270 0
M  V30 16 Fe -1.0394 3.4472 -1.7477 0
M  V30 17 Pb -1.7289 -0.9982 3.2687 0
M  V30 18 Ba -2.5112 -1.4499 2.0712 0
M  V30 19 Pb -3.2029 -1.8492 0.8015 0
M  V30 20 Pb 1.6074 -0.9983 3.3022 0
M  V30 21 Ba 2.4136 -1.4500 2.1206 0
M  V30 22 Pb 3.1306 -1.8494 0.8651 0
M  V30 23 Pb -0.0608 1.8912 3.3022 0
M  V30 24 Ba -0.0490 2.8152 2.1206 0
M  V30 25 Pb -0.0363 3.6359 0.8651 0
M  V30 26 Pb -1.5073 -2.7966 -1.9114 0
M  V30 27 Ba -0.0084 -2.8483 -1.9334 0
M  V30 28 Pb 1.4898 -2.7967 -1.8813 0
M  V30 29 Pb -3.1756 0.0929 -1.9114 0
M  V30 30 Ba -2.4709 1.4169 -1.9334 0
M  V30 31 Pb -1.6771 2.6886 -1.8813 0
M  V30 32 Pb 3.1579 0.0927 -1.8478 0
M  V30 33 Ba 2.4539 1.4168 -1.8839 0
M  V30 34 Pb 1.6593 2.6885 -1.8478 0
M  V30 END ATOM
M  V30 BEGIN BOND
M  V30 1 1 1 2
M  V30 2 1 1 3
M  V30 3 1 1 4
M  V30 4 1 5 6
M  V30 5 1 5 7
M  V30 6 1 5 8
M  V30 7 1 9 10
M  V30 8 1 9 11
M  V30 9 1 9 12
M  V30 10 1 13 14
M  V30 11 1 13 15
M  V30 12 1 13 16
M  V30 13 1 17 18
M  V30 14 1 18 19
M  V30 15 1 20 21
M  V30 16 1 21 22
M  V30 17 1 23 24
M  V30 18 1 24 25
M  V30 19 1 26 27
M  V30 20 1 27 28
M  V30 21 1 29 30
M  V30 22 1 30 31
M  V30 23 1 32 33
M  V30 24 1 33 34
M  V30 25 1 2 17
M  V30 26 1 6 19
M  V30 27 1 3 20
M  V30 28 1 10 22
M  V30 29 1 4 23
M  V30 30 1 14 25
M  V30 31 1 8 26
M  V30 32 1 11 28
M  V30 33 1 7 29
M  V30 34 1 16 31
M  V30 35 1 12 32
M  V30 36 1 15 34
M  V30 END BOND
M  V30 END CTAB
M  END

$$$$
