
     RDKit          3D

  0  0  0  0  0  0  0  0  0  0999 V3000
M  V30 BEGIN CTAB
M  V30 COUNTS 34 36 0 0 0
M  V30 BEGIN ATOM
M  V30 1 Ag 2.7528 2.5567 2.8827 0
M  V30 2 Fe 2.2119 1.1626 2.9879 0
M  V30 3 Fe 2.3002 1.6172 1.8029 0
M  V30 4 Fe 1.3469 2.0349 2.8773 0
M  V30 5 Ag -2.7587 -2.7023 2.8781 0
M  V30 6 Fe -1.3527 -2.1804 2.8753 0
M  V30 7 Fe -2.2181 -1.3081 2.9838 0
M  V30 8 Fe -2.3040 -1.7631 1.7988 0
M  V30 9 Ag 2.7563 -2.7051 -2.8779 0
M  V30 10 Fe 1.3508 -2.1819 -2.8752 0
M  V30 11 Fe 2.2169 -1.3105 -2.9837 0
M  V30 12 Fe 2.3024 -1.7654 -1.7987 0
M  V30 13 Ag -2.7503 2.5592 -2.8830 0
M  V30 14 Fe -2.2107 1.1646 -2.9880 0
M  V30 15 Fe -2.2987 1.6193 -1.8030 0
M  V30 16 Fe -1.3449 2.0360 -2.8775 0
M  V30 17 Pb 1.7465 0.2785 2.9961 0
M  V30 18 Ba 0.7011 -0.7959 2.9656 0
M  V30 19 Pb -0.4474 -1.7589 2.9220 0
M  V30 20 Pb 0.4414 1.6134 2.9223 0
M  V30 21 Ba -0.7071 0.6503 2.9640 0
M  V30 22 Pb -1.7527 -0.4240 2.9927 0
M  V30 23 Pb 0.4459 -1.7595 -2.9218 0
M  V30 24 Ba -0.7017 -0.7954 -2.9656 0
M  V30 25 Pb -1.7461 0.2799 -2.9962 0
M  V30 26 Pb 1.7523 -0.4259 -2.9927 0
M  V30 27 Ba 0.7078 0.6494 -2.9640 0
M  V30 28 Pb -0.4398 1.6135 -2.9224 0
M  V30 29 Pb 2.0511 0.9540 1.0953 0
M  V30 30 Ba 2.0133 -0.0741 0.0019 0
M  V30 31 Pb 2.0524 -1.1021 -1.0915 0
M  V30 32 Pb -2.0534 -1.1000 1.0916 0
M  V30 33 Ba -2.0133 -0.0721 -0.0019 0
M  V30 34 Pb -2.0502 0.9559 -1.0954 0
M  V30 END ATOM
M  V30 BEGIN BOND
M  V30 1 1 1 2
M  V30 2 1 1 3
M  V30 3 1 1 4
M  V30 4 1 5 6
M  V30 5 1 5 7
M  V30 6 1 5 8
M  V30 7 1 9 10
M  V30 8 1 9 11
M  V30 9 1 9 12
M  V30 10 1 13 14
M  V30 11 1 13 15
M  V30 12 1 13 16
M  V30 13 1 17 18
M  V30 14 1 18 19
M  V30 15 1 20 21
M  V30 16 1 21 22
M  V30 17 1 23 24
M  V30 18 1 24 25
M  V30 19 1 26 27
M  V30 20 1 27 28
M  V30 21 1 29 30
M  V30 22 1 30 31
M  V30 23 1 32 33
M  V30 24 1 33 34
M  V30 25 1 2 17
M  V30 26 1 6 19
M  V30 27 1 4 20
M  V30 28 1 7 22
M  V30 29 1 10 23
M  V30 30 1 14 25
M  V30 31 1 11 26
M  V30 32 1 16 28
M  V30 33 1 3 29
M  V30 34 1 12 31
M  V30 35 1 8 32
M  V30 36 1 15 34
M  V30 END BOND
M  V30 END CTAB
M  END

$$$$
