
     RDKit          3D

  0  0  0  0  0  0  0  0  0  0999 V3000
M  V30 BEGIN CTAB
M  V30 COUNTS 51 54 0 0 0
M  V30 BEGIN ATOM
M  V30 1 Ag -3.2104 -2.0126 -3.3578 0
M  V30 2 Fe -2.3479 -1.4759 -2.2541 0
M  V30 3 Fe -3.3765 -0.7598 -4.1658 0
M  V30 4 Fe -2.1578 -2.7047 -4.1722 0
M  V30 5 Ag -3.2079 -2.0331 3.2946 0
M  V30 6 Fe -2.3463 -1.4896 2.1936 0
M  V30 7 Fe -2.1548 -2.7301 4.1039 0
M  V30 8 Fe -3.3734 -0.7852 4.1104 0
M  V30 9 Ag 3.2270 -1.7798 -3.3595 0
M  V30 10 Fe 2.2268 -2.5461 -4.1734 0
M  V30 11 Fe 3.3017 -0.5182 -4.1675 0
M  V30 12 Fe 2.3286 -1.3068 -2.2554 0
M  V30 13 Ag 3.2295 -1.8004 3.2929 0
M  V30 14 Fe 2.3303 -1.3205 2.1924 0
M  V30 15 Fe 3.3048 -0.5438 4.1086 0
M  V30 16 Fe 2.2298 -2.5716 4.1028 0
M  V30 17 Ag -0.1933 3.6787 -3.3414 0
M  V30 18 Fe -1.3215 3.1166 -4.1546 0
M  V30 19 Fe -0.1561 2.6587 -2.2422 0
M  V30 20 Fe 0.9721 3.1996 -4.1552 0
M  V30 21 Ag -0.1907 3.6582 3.3110 0
M  V30 22 Fe -1.3183 3.0912 4.1216 0
M  V30 23 Fe 0.9753 3.1741 4.1210 0
M  V30 24 Fe -0.1544 2.6450 2.2055 0
M  V30 25 Pb -1.7631 -1.1118 -1.5293 0
M  V30 26 Ba -1.7727 -1.1228 -0.0294 0
M  V30 27 Pb -1.7620 -1.1210 1.4706 0
M  V30 28 Pb -1.4473 -3.1599 -4.7088 0
M  V30 29 Ba 0.0519 -3.1120 -4.7161 0
M  V30 30 Pb 1.5507 -3.0515 -4.7096 0
M  V30 31 Pb 1.7194 -0.9859 -1.5302 0
M  V30 32 Ba 1.7306 -0.9962 -0.0303 0
M  V30 33 Pb 1.7205 -0.9952 1.4697 0
M  V30 34 Pb -1.4439 -3.1887 4.6371 0
M  V30 35 Ba 0.0554 -3.1408 4.6436 0
M  V30 36 Pb 1.5541 -3.0804 4.6363 0
M  V30 37 Pb -3.4779 0.0807 -4.6980 0
M  V30 38 Ba -2.7809 1.4089 -4.7011 0
M  V30 39 Pb -2.0728 2.7312 -4.6904 0
M  V30 40 Pb 3.3419 0.3274 -4.6998 0
M  V30 41 Ba 2.5507 1.6018 -4.7025 0
M  V30 42 Pb 1.7490 2.8695 -4.6914 0
M  V30 43 Pb -3.4744 0.0520 4.6479 0
M  V30 44 Ba -2.7773 1.3801 4.6586 0
M  V30 45 Pb -2.0692 2.7025 4.6555 0
M  V30 46 Pb 3.3454 0.2985 4.6461 0
M  V30 47 Ba 2.5543 1.5728 4.6572 0
M  V30 48 Pb 1.7526 2.8406 4.6545 0
M  V30 49 Pb -0.1309 1.9670 -1.5204 0
M  V30 50 Ba -0.1308 1.9744 -0.0204 0
M  V30 51 Pb -0.1297 1.9578 1.4795 0
M  V30 END ATOM
M  V30 BEGIN BOND
M  V30 1 1 1 2
M  V30 2 1 1 3
M  V30 3 1 1 4
M  V30 4 1 5 6
M  V30 5 1 5 7
M  V30 6 1 5 8
M  V30 7 1 9 10
M  V30 8 1 9 11
M  V30 9 1 9 12
M  V30 10 1 13 14
M  V30 11 1 13 15
M  V30 12 1 13 16
M  V30 13 1 17 18
M  V30 14 1 17 19
M  V30 15 1 17 20
M  V30 16 1 21 22
M  V30 17 1 21 23
M  V30 18 1 21 24
M  V30 19 1 25 26
M  V30 20 1 26 27
M  V30 21 1 28 29
M  V30 22 1 29 30
M  V30 23 1 31 32
M  V30 24 1 32 33
M  V30 25 1 34 35
M  V30 26 1 35 36
M  V30 27 1 37 38
M  V30 28 1 38 39
M  V30 29 1 40 41
M  V30 30 1 41 42
M  V30 31 1 43 44
M  V30 32 1 44 45
M  V30 33 1 46 47
M  V30 34 1 47 48
M  V30 35 1 49 50
M  V30 36 1 50 51
M  V30 37 1 2 25
M  V30 38 1 6 27
M  V30 39 1 4 28
M  V30 40 1 10 30
M  V30 41 1 12 31
M  V30 42 1 14 33
M  V30 43 1 7 34
M  V30 44 1 16 36
M  V30 45 1 3 37
M  V30 46 1 18 39
M  V30 47 1 11 40
M  V30 48 1 20 42
M  V30 49 1 8 43
M  V30 50 1 22 45
M  V30 51 1 15 46
M  V30 52 1 23 48
M  V30 53 1 19 49
M  V30 54 1 24 51
M  V30 END BOND
M  V30 END CTAB
M  END

$$$$
