
     RDKit          3D

  0  0  0  0  0  0  0  0  0  0999 V3000
M  V30 BEGIN CTAB
M  V30 COUNTS 51 54 0 0 0
M  V30 BEGIN ATOM
M  V30 1 Ag -1.7980 -1.0614 -1.7873 0
M  V30 2 Fe -3.0840 -1.8186 -1.6364 0
M  V30 3 Fe -2.6148 -0.4188 -2.8690 0
M  V30 4 Fe -1.6385 -2.0786 -2.8781 0
M  V30 5 Ag -1.7996 -1.0817 1.7188 0
M  V30 6 Fe -3.0855 -1.8372 1.5580 0
M  V30 7 Fe -1.6411 -2.1115 2.7979 0
M  V30 8 Fe -2.6174 -0.4517 2.8071 0
M  V30 9 Ag 1.6936 -1.0332 -1.7855 0
M  V30 10 Fe 1.5517 -2.0528 -2.8765 0
M  V30 11 Fe 2.5010 -0.3774 -2.8663 0
M  V30 12 Fe 2.9915 -1.7695 -1.6333 0
M  V30 13 Ag 1.6920 -1.0535 1.7207 0
M  V30 14 Fe 2.9901 -1.7880 1.5611 0
M  V30 15 Fe 2.4984 -0.4103 2.8097 0
M  V30 16 Fe 1.5491 -2.0857 2.7996 0
M  V30 17 Ag -0.0766 1.9765 -1.7689 0
M  V30 18 Fe -1.0420 2.3568 -2.8521 0
M  V30 19 Fe -0.0888 3.4674 -1.6043 0
M  V30 20 Fe 0.8836 2.3724 -2.8511 0
M  V30 21 Ag -0.0782 1.9562 1.7373 0
M  V30 22 Fe -1.0446 2.3239 2.8240 0
M  V30 23 Fe 0.8809 2.3395 2.8249 0
M  V30 24 Fe -0.0903 3.4489 1.5900 0
M  V30 25 Pb -3.9419 -2.3238 -1.5425 0
M  V30 26 Ba -3.9382 -2.3299 -0.0425 0
M  V30 27 Pb -3.9433 -2.3412 1.4574 0
M  V30 28 Pb -1.5375 -2.7571 -3.6057 0
M  V30 29 Ba -0.0375 -2.7422 -3.6020 0
M  V30 30 Pb 1.4624 -2.7328 -3.6042 0
M  V30 31 Pb 3.8574 -2.2607 -1.5385 0
M  V30 32 Ba 3.8523 -2.2669 -0.0385 0
M  V30 33 Pb 3.8560 -2.2781 1.4614 0
M  V30 34 Pb -1.5408 -2.7984 3.5177 0
M  V30 35 Ba -0.0409 -2.7835 3.5156 0
M  V30 36 Pb 1.4591 -2.7741 3.5193 0
M  V30 37 Pb -3.1622 0.0051 -3.5905 0
M  V30 38 Ba -2.4203 1.3088 -3.5796 0
M  V30 39 Pb -1.6833 2.6152 -3.5746 0
M  V30 40 Pb 3.0423 0.0553 -3.5873 0
M  V30 41 Ba 2.2794 1.3468 -3.5772 0
M  V30 42 Pb 1.5213 2.6411 -3.5730 0
M  V30 43 Pb -3.1655 -0.0362 3.5330 0
M  V30 44 Ba -2.4236 1.2675 3.5380 0
M  V30 45 Pb -1.6866 2.5739 3.5488 0
M  V30 46 Pb 3.0390 0.0140 3.5362 0
M  V30 47 Ba 2.2761 1.3056 3.5404 0
M  V30 48 Pb 1.5180 2.5998 3.5504 0
M  V30 49 Pb -0.0969 4.4621 -1.5014 0
M  V30 50 Ba -0.0975 4.4483 -0.0014 0
M  V30 51 Pb -0.0983 4.4447 1.4986 0
M  V30 END ATOM
M  V30 BEGIN BOND
M  V30 1 1 1 2
M  V30 2 1 1 3
M  V30 3 1 1 4
M  V30 4 1 5 6
M  V30 5 1 5 7
M  V30 6 1 5 8
M  V30 7 1 9 10
M  V30 8 1 9 11
M  V30 9 1 9 12
M  V30 10 1 13 14
M  V30 11 1 13 15
M  V30 12 1 13 16
M  V30 13 1 17 18
M  V30 14 1 17 19
M  V30 15 1 17 20
M  V30 16 1 21 22
M  V30 17 1 21 23
M  V30 18 1 21 24
M  V30 19 1 25 26
M  V30 20 1 26 27
M  V30 21 1 28 29
M  V30 22 1 29 30
M  V30 23 1 31 32
M  V30 24 1 32 33
M  V30 25 1 34 35
M  V30 26 1 35 36
M  V30 27 1 37 38
M  V30 28 1 38 39
M  V30 29 1 40 41
M  V30 30 1 41 42
M  V30 31 1 43 44
M  V30 32 1 44 45
M  V30 33 1 46 47
M  V30 34 1 47 48
M  V30 35 1 49 50
M  V30 36 1 50 51
M  V30 37 1 2 25
M  V30 38 1 6 27
M  V30 39 1 4 28
M  V30 40 1 10 30
M  V30 41 1 12 31
M  V30 42 1 14 33
M  V30 43 1 7 34
M  V30 44 1 16 36
M  V30 45 1 3 37
M  V30 46 1 18 39
M  V30 47 1 11 40
M  V30 48 1 20 42
M  V30 49 1 8 43
M  V30 50 1 22 45
M  V30 51 1 15 46
M  V30 52 1 23 48
M  V30 53 1 19 49
M  V30 54 1 24 51
M  V30 END BOND
M  V30 END CTAB
M  END

$$$$
