
     RDKit          3D

  0  0  0  0  0  0  0  0  0  0999 V3000
M  V30 BEGIN CTAB
M  V30 COUNTS 51 54 0 0 0
M  V30 BEGIN ATOM
M  V30 1 Ag -1.9870 -1.1786 -2.0091 0
M  V30 2 Fe -3.2507 -1.9223 -1.6930 0
M  V30 3 Fe -2.7590 -0.4125 -3.0422 0
M  V30 4 Fe -1.6948 -2.2224 -3.0460 0
M  V30 5 Ag -1.9857 -1.1862 1.9482 0
M  V30 6 Fe -3.2496 -1.9286 1.6301 0
M  V30 7 Fe -1.6928 -2.2339 2.9809 0
M  V30 8 Fe -2.7569 -0.4240 2.9847 0
M  V30 9 Ag 1.8781 -1.1481 -2.0104 0
M  V30 10 Fe 1.6019 -2.1964 -3.0470 0
M  V30 11 Fe 2.6372 -0.3699 -3.0439 0
M  V30 12 Fe 3.1537 -1.8716 -1.6950 0
M  V30 13 Ag 1.8795 -1.1556 1.9470 0
M  V30 14 Fe 3.1548 -1.8780 1.6281 0
M  V30 15 Fe 2.6392 -0.3814 2.9830 0
M  V30 16 Fe 1.6039 -2.2079 2.9799 0
M  V30 17 Ag -0.0809 2.1839 -2.0034 0
M  V30 18 Fe -1.1332 2.4555 -3.0373 0
M  V30 19 Fe -0.0924 3.6494 -1.6834 0
M  V30 20 Fe 0.9663 2.4721 -3.0379 0
M  V30 21 Ag -0.0796 2.1764 1.9540 0
M  V30 22 Fe -1.1311 2.4440 2.9897 0
M  V30 23 Fe 0.9683 2.4606 2.9890 0
M  V30 24 Fe -0.0913 3.6430 1.6397 0
M  V30 25 Pb -4.1013 -2.4227 -1.5316 0
M  V30 26 Ba -4.0683 -2.4065 -0.0321 0
M  V30 27 Pb -4.1003 -2.4284 1.4674 0
M  V30 28 Pb -1.5408 -2.9236 -3.7422 0
M  V30 29 Ba -0.0413 -2.8897 -3.7208 0
M  V30 30 Pb 1.4585 -2.8999 -3.7431 0
M  V30 31 Pb 4.0122 -2.3586 -1.5342 0
M  V30 32 Ba 3.9798 -2.3428 -0.0346 0
M  V30 33 Pb 4.0132 -2.3643 1.4648 0
M  V30 34 Pb -1.5383 -2.9377 3.6743 0
M  V30 35 Ba -0.0389 -2.9038 3.6521 0
M  V30 36 Pb 1.4609 -2.9140 3.6733 0
M  V30 37 Pb -3.2980 0.0652 -3.7359 0
M  V30 38 Ba -2.5393 1.3589 -3.7119 0
M  V30 39 Pb -1.8189 2.6745 -3.7314 0
M  V30 40 Pb 3.1682 0.1163 -3.7379 0
M  V30 41 Ba 2.3891 1.3979 -3.7134 0
M  V30 42 Pb 1.6481 2.7019 -3.7325 0
M  V30 43 Pb -3.2955 0.0510 3.6806 0
M  V30 44 Ba -2.5368 1.3448 3.6610 0
M  V30 45 Pb -1.8164 2.6603 3.6851 0
M  V30 46 Pb 3.1707 0.1022 3.6785 0
M  V30 47 Ba 2.3916 1.3838 3.6594 0
M  V30 48 Pb 1.6506 2.6877 3.6840 0
M  V30 49 Pb -0.1001 4.6358 -1.5195 0
M  V30 50 Ba -0.0993 4.5952 -0.0201 0
M  V30 51 Pb -0.0991 4.6301 1.4795 0
M  V30 END ATOM
M  V30 BEGIN BOND
M  V30 1 1 1 2
M  V30 2 1 1 3
M  V30 3 1 1 4
M  V30 4 1 5 6
M  V30 5 1 5 7
M  V30 6 1 5 8
M  V30 7 1 9 10
M  V30 8 1 9 11
M  V30 9 1 9 12
M  V30 10 1 13 14
M  V30 11 1 13 15
M  V30 12 1 13 16
M  V30 13 1 17 18
M  V30 14 1 17 19
M  V30 15 1 17 20
M  V30 16 1 21 22
M  V30 17 1 21 23
M  V30 18 1 21 24
M  V30 19 1 25 26
M  V30 20 1 26 27
M  V30 21 1 28 29
M  V30 22 1 29 30
M  V30 23 1 31 32
M  V30 24 1 32 33
M  V30 25 1 34 35
M  V30 26 1 35 36
M  V30 27 1 37 38
M  V30 28 1 38 39
M  V30 29 1 40 41
M  V30 30 1 41 42
M  V30 31 1 43 44
M  V30 32 1 44 45
M  V30 33 1 46 47
M  V30 34 1 47 48
M  V30 35 1 49 50
M  V30 36 1 50 51
M  V30 37 1 2 25
M  V30 38 1 6 27
M  V30 39 1 4 28
M  V30 40 1 10 30
M  V30 41 1 12 31
M  V30 42 1 14 33
M  V30 43 1 7 34
M  V30 44 1 16 36
M  V30 45 1 3 37
M  V30 46 1 18 39
M  V30 47 1 11 40
M  V30 48 1 20 42
M  V30 49 1 8 43
M  V30 50 1 22 45
M  V30 51 1 15 46
M  V30 52 1 23 48
M  V30 53 1 19 49
M  V30 54 1 24 51
M  V30 END BOND
M  V30 END CTAB
M  END

$$$$
