
     RDKit          3D

  0  0  0  0  0  0  0  0  0  0999 V3000
M  V30 BEGIN CTAB
M  V30 COUNTS 34 36 0 0 0
M  V30 BEGIN ATOM
M  V30 1 Ag 1.6648 -0.0731 1.6459 0
M  V30 2 Fe 1.5722 -1.1799 2.6540 0
M  V30 3 Fe 3.1627 -0.0730 1.5663 0
M  V30 4 Fe 1.5722 1.0323 2.6556 0
M  V30 5 Ag -1.6644 -0.0731 1.6462 0
M  V30 6 Fe -1.5717 -1.1800 2.6543 0
M  V30 7 Fe -1.5717 1.0323 2.6559 0
M  V30 8 Fe -3.1623 -0.0730 1.5669 0
M  V30 9 Ag 1.6644 -0.0731 -1.6462 0
M  V30 10 Fe 1.5717 -1.1800 -2.6543 0
M  V30 11 Fe 1.5717 1.0323 -2.6559 0
M  V30 12 Fe 3.1623 -0.0730 -1.5669 0
M  V30 13 Ag -1.6648 -0.0731 -1.6459 0
M  V30 14 Fe -1.5722 -1.1799 -2.6540 0
M  V30 15 Fe -3.1627 -0.0730 -1.5663 0
M  V30 16 Fe -1.5722 1.0323 -2.6556 0
M  V30 17 Pb 1.5003 -1.9174 3.3256 0
M  V30 18 Ba 0.0003 -1.9230 3.3309 0
M  V30 19 Pb -1.4996 -1.9174 3.3259 0
M  V30 20 Pb 1.5003 1.7687 3.3283 0
M  V30 21 Ba 0.0003 1.7743 3.3336 0
M  V30 22 Pb -1.4996 1.7687 3.3286 0
M  V30 23 Pb 1.4996 -1.9174 -3.3259 0
M  V30 24 Ba -0.0003 -1.9230 -3.3309 0
M  V30 25 Pb -1.5003 -1.9174 -3.3256 0
M  V30 26 Pb 1.4996 1.7687 -3.3286 0
M  V30 27 Ba -0.0003 1.7743 -3.3336 0
M  V30 28 Pb -1.5003 1.7687 -3.3283 0
M  V30 29 Pb 4.1604 -0.0730 1.4995 0
M  V30 30 Ba 4.1706 -0.0730 -0.0004 0
M  V30 31 Pb 4.1601 -0.0730 -1.5004 0
M  V30 32 Pb -4.1601 -0.0730 1.5004 0
M  V30 33 Ba -4.1706 -0.0730 0.0004 0
M  V30 34 Pb -4.1604 -0.0730 -1.4995 0
M  V30 END ATOM
M  V30 BEGIN BOND
M  V30 1 1 1 2
M  V30 2 1 1 3
M  V30 3 1 1 4
M  V30 4 1 5 6
M  V30 5 1 5 7
M  V30 6 1 5 8
M  V30 7 1 9 10
M  V30 8 1 9 11
M  V30 9 1 9 12
M  V30 10 1 13 14
M  V30 11 1 13 15
M  V30 12 1 13 16
M  V30 13 1 17 18
M  V30 14 1 18 19
M  V30 15 1 20 21
M  V30 16 1 21 22
M  V30 17 1 23 24
M  V30 18 1 24 25
M  V30 19 1 26 27
M  V30 20 1 27 28
M  V30 21 1 29 30
M  V30 22 1 30 31
M  V30 23 1 32 33
M  V30 24 1 33 34
M  V30 25 1 2 17
M  V30 26 1 6 19
M  V30 27 1 4 20
M  V30 28 1 7 22
M  V30 29 1 10 23
M  V30 30 1 14 25
M  V30 31 1 11 26
M  V30 32 1 16 28
M  V30 33 1 3 29
M  V30 34 1 12 31
M  V30 35 1 8 32
M  V30 36 1 15 34
M  V30 END BOND
M  V30 END CTAB
M  END

$$$$
