
     RDKit          3D

  0  0  0  0  0  0  0  0  0  0999 V3000
M  V30 BEGIN CTAB
M  V30 COUNTS 51 54 0 0 0
M  V30 BEGIN ATOM
M  V30 1 Ag -1.3142 -1.1681 -1.6223 0
M  V30 2 Fe -1.0492 -2.6314 -1.4241 0
M  V30 3 Fe -2.4349 -0.6102 -0.7963 0
M  V30 4 Fe -1.3820 -0.7599 -3.0641 0
M  V30 5 Ag -1.9725 -1.3902 2.0170 0
M  V30 6 Fe -1.6486 -2.8333 1.7681 0
M  V30 7 Fe -1.6810 -0.9311 3.4149 0
M  V30 8 Fe -3.3172 -0.9514 1.5182 0
M  V30 9 Ag 2.2221 -0.3516 -2.0933 0
M  V30 10 Fe 1.7489 -0.0499 -3.4844 0
M  V30 11 Fe 3.2255 0.6387 -1.5816 0
M  V30 12 Fe 2.5860 -1.7894 -1.8704 0
M  V30 13 Ag 1.5493 -0.5128 1.5465 0
M  V30 14 Fe 1.9732 -1.9344 1.3223 0
M  V30 15 Fe 2.2939 0.5052 0.7347 0
M  V30 16 Fe 1.4312 -0.1426 2.9953 0
M  V30 17 Ag -0.0763 2.0200 -1.5746 0
M  V30 18 Fe -1.3480 2.3694 -0.8604 0
M  V30 19 Fe 0.2476 0.5562 -1.5242 0
M  V30 20 Fe 1.0789 2.9066 -1.2139 0
M  V30 21 Ag -0.9955 1.7723 1.5478 0
M  V30 22 Fe -2.4280 2.0474 1.1976 0
M  V30 23 Fe -0.0217 2.6707 0.8449 0
M  V30 24 Fe -0.6234 0.3212 1.4710 0
M  V30 25 Pb -0.8712 -3.6102 -1.3196 0
M  V30 26 Ba -1.1553 -3.6846 0.1517 0
M  V30 27 Pb -1.4314 -3.7982 1.6220 0
M  V30 28 Pb -1.4482 -0.4943 -4.0259 0
M  V30 29 Ba 0.0055 -0.1714 -4.2060 0
M  V30 30 Pb 1.4534 0.1591 -4.4166 0
M  V30 31 Pb 2.8287 -2.7507 -1.7418 0
M  V30 32 Ba 2.5371 -2.7991 -0.2708 0
M  V30 33 Pb 2.2561 -2.8861 1.2004 0
M  V30 34 Pb -1.5079 -0.6271 4.3517 0
M  V30 35 Ba -0.0678 -0.2641 4.1413 0
M  V30 36 Pb 1.3742 0.1078 3.9617 0
M  V30 37 Pb -3.1935 -0.2303 -0.2672 0
M  V30 38 Ba -2.6905 1.1824 -0.3163 0
M  V30 39 Pb -2.1866 2.5947 -0.3647 0
M  V30 40 Pb 3.8910 1.3133 -1.2627 0
M  V30 41 Ba 2.8756 2.4059 -1.1059 0
M  V30 42 Pb 1.8492 3.4886 -0.9526 0
M  V30 43 Pb -4.2169 -0.6449 1.2082 0
M  V30 44 Ba -3.8053 0.7911 1.0740 0
M  V30 45 Pb -3.3793 2.2231 0.9432 0
M  V30 46 Pb 2.7969 1.1958 0.2153 0
M  V30 47 Ba 1.7101 2.2277 0.2863 0
M  V30 48 Pb 0.6226 3.2590 0.3566 0
M  V30 49 Pb 0.4600 -0.4196 -1.4724 0
M  V30 50 Ba 0.0466 -0.5433 -0.0355 0
M  V30 51 Pb -0.3722 -0.6443 1.4016 0
M  V30 END ATOM
M  V30 BEGIN BOND
M  V30 1 1 1 2
M  V30 2 1 1 3
M  V30 3 1 1 4
M  V30 4 1 5 6
M  V30 5 1 5 7
M  V30 6 1 5 8
M  V30 7 1 9 10
M  V30 8 1 9 11
M  V30 9 1 9 12
M  V30 10 1 13 14
M  V30 11 1 13 15
M  V30 12 1 13 16
M  V30 13 1 17 18
M  V30 14 1 17 19
M  V30 15 1 17 20
M  V30 16 1 21 22
M  V30 17 1 21 23
M  V30 18 1 21 24
M  V30 19 1 25 26
M  V30 20 1 26 27
M  V30 21 1 28 29
M  V30 22 1 29 30
M  V30 23 1 31 32
M  V30 24 1 32 33
M  V30 25 1 34 35
M  V30 26 1 35 36
M  V30 27 1 37 38
M  V30 28 1 38 39
M  V30 29 1 40 41
M  V30 30 1 41 42
M  V30 31 1 43 44
M  V30 32 1 44 45
M  V30 33 1 46 47
M  V30 34 1 47 48
M  V30 35 1 49 50
M  V30 36 1 50 51
M  V30 37 1 2 25
M  V30 38 1 6 27
M  V30 39 1 4 28
M  V30 40 1 10 30
M  V30 41 1 12 31
M  V30 42 1 14 33
M  V30 43 1 7 34
M  V30 44 1 16 36
M  V30 45 1 3 37
M  V30 46 1 18 39
M  V30 47 1 11 40
M  V30 48 1 20 42
M  V30 49 1 8 43
M  V30 50 1 22 45
M  V30 51 1 15 46
M  V30 52 1 23 48
M  V30 53 1 19 49
M  V30 54 1 24 51
M  V30 END BOND
M  V30 END CTAB
M  END

$$$$
