
     RDKit          3D

  0  0  0  0  0  0  0  0  0  0999 V3000
M  V30 BEGIN CTAB
M  V30 COUNTS 34 36 0 0 0
M  V30 BEGIN ATOM
M  V30 1 Ag 3.9017 2.0074 2.2283 0
M  V30 2 Fe 3.3416 1.9690 0.8384 0
M  V30 3 Fe 3.3793 0.6136 2.0509 0
M  V30 4 Fe 2.4162 2.1173 2.3974 0
M  V30 5 Ag 0.7467 -0.1653 -4.6101 0
M  V30 6 Fe 1.3503 0.5214 -3.4213 0
M  V30 7 Fe -0.3892 0.4248 -3.8279 0
M  V30 8 Fe 0.4255 -1.1956 -3.5670 0
M  V30 9 Ag -0.5821 -4.4103 1.8445 0
M  V30 10 Fe 0.4922 -3.3640 1.8288 0
M  V30 11 Fe -0.4607 -3.9355 0.4266 0
M  V30 12 Fe -1.4551 -3.1914 1.7739 0
M  V30 13 Ag -3.8229 2.6867 1.0847 0
M  V30 14 Fe -2.4185 2.5409 1.5901 0
M  V30 15 Fe -3.5886 1.2200 1.2956 0
M  V30 16 Fe -3.1738 2.2174 -0.1846 0
M  V30 17 Pb 2.9671 1.9570 -0.0878 0
M  V30 18 Ba 2.3583 1.4705 -1.3688 0
M  V30 19 Pb 1.7524 1.0509 -2.6746 0
M  V30 20 Pb 3.0424 -0.3186 1.9258 0
M  V30 21 Ba 2.1250 -1.5034 1.8719 0
M  V30 22 Pb 1.2631 -2.7281 1.7976 0
M  V30 23 Pb 1.4275 2.1861 2.5229 0
M  V30 24 Ba -0.0370 2.3174 2.2292 0
M  V30 25 Pb -1.5142 2.4452 2.0057 0
M  V30 26 Pb 0.1792 -1.9327 -2.9359 0
M  V30 27 Ba -0.0857 -2.7526 -1.7074 0
M  V30 28 Pb -0.3697 -3.6249 -0.5197 0
M  V30 29 Pb -1.1435 0.8289 -3.3103 0
M  V30 30 Ba -1.9555 1.3657 -2.1681 0
M  V30 31 Pb -2.8184 1.9162 -1.0706 0
M  V30 32 Pb -2.1064 -2.4321 1.7337 0
M  V30 33 Ba -2.7392 -1.0798 1.5835 0
M  V30 34 Pb -3.4331 0.2439 1.4476 0
M  V30 END ATOM
M  V30 BEGIN BOND
M  V30 1 1 1 2
M  V30 2 1 1 3
M  V30 3 1 1 4
M  V30 4 1 5 6
M  V30 5 1 5 7
M  V30 6 1 5 8
M  V30 7 1 9 10
M  V30 8 1 9 11
M  V30 9 1 9 12
M  V30 10 1 13 14
M  V30 11 1 13 15
M  V30 12 1 13 16
M  V30 13 1 17 18
M  V30 14 1 18 19
M  V30 15 1 20 21
M  V30 16 1 21 22
M  V30 17 1 23 24
M  V30 18 1 24 25
M  V30 19 1 26 27
M  V30 20 1 27 28
M  V30 21 1 29 30
M  V30 22 1 30 31
M  V30 23 1 32 33
M  V30 24 1 33 34
M  V30 25 1 2 17
M  V30 26 1 6 19
M  V30 27 1 3 20
M  V30 28 1 10 22
M  V30 29 1 4 23
M  V30 30 1 14 25
M  V30 31 1 8 26
M  V30 32 1 11 28
M  V30 33 1 7 29
M  V30 34 1 16 31
M  V30 35 1 12 32
M  V30 36 1 15 34
M  V30 END BOND
M  V30 END CTAB
M  END

$$$$
