
     RDKit          3D

  0  0  0  0  0  0  0  0  0  0999 V3000
M  V30 BEGIN CTAB
M  V30 COUNTS 68 72 0 0 0
M  V30 BEGIN ATOM
M  V30 1 Ag -2.7495 3.1309 -3.0946 0
M  V30 2 Fe -1.7806 2.0126 -3.3405 0
M  V30 3 Fe -3.5069 2.1435 -3.9321 0
M  V30 4 Fe -3.1567 2.0486 -2.1392 0
M  V30 5 Ag -2.6706 -3.1211 -3.0946 0
M  V30 6 Fe -3.4527 -2.1531 -3.9321 0
M  V30 7 Fe -1.7302 -1.9787 -3.3406 0
M  V30 8 Fe -3.1049 -2.0494 -2.1392 0
M  V30 9 Ag 3.4525 3.1893 -3.1071 0
M  V30 10 Fe 2.5015 2.0546 -3.3477 0
M  V30 11 Fe 2.3261 3.4163 -2.1429 0
M  V30 12 Fe 3.7036 2.2284 -1.9830 0
M  V30 13 Ag 3.5310 -3.0232 -3.1071 0
M  V30 14 Fe 2.5516 -1.9128 -3.3477 0
M  V30 15 Fe 3.7576 -2.0563 -1.9830 0
M  V30 16 Fe 2.4106 -3.2784 -2.1429 0
M  V30 17 Ag -2.7495 3.1309 3.0946 0
M  V30 18 Fe -1.7806 2.0126 3.3405 0
M  V30 19 Fe -3.1567 2.0486 2.1392 0
M  V30 20 Fe -3.5069 2.1435 3.9321 0
M  V30 21 Ag -2.6706 -3.1211 3.0946 0
M  V30 22 Fe -3.4527 -2.1531 3.9321 0
M  V30 23 Fe -3.1049 -2.0494 2.1392 0
M  V30 24 Fe -1.7302 -1.9787 3.3406 0
M  V30 25 Ag 3.4525 3.1893 3.1071 0
M  V30 26 Fe 2.5015 2.0546 3.3477 0
M  V30 27 Fe 3.7036 2.2284 1.9830 0
M  V30 28 Fe 2.3261 3.4163 2.1429 0
M  V30 29 Ag 3.5310 -3.0232 3.1071 0
M  V30 30 Fe 2.5516 -1.9128 3.3477 0
M  V30 31 Fe 2.4106 -3.2784 2.1429 0
M  V30 32 Fe 3.7576 -2.0563 1.9830 0
M  V30 33 Pb -1.1328 1.2685 -3.5038 0
M  V30 34 Ba 0.3671 1.2824 -3.5063 0
M  V30 35 Pb 1.8670 1.2984 -3.5084 0
M  V30 36 Pb -4.0139 1.4886 -4.4926 0
M  V30 37 Ba -3.9925 -0.0113 -4.4899 0
M  V30 38 Pb -3.9760 -1.5112 -4.4926 0
M  V30 39 Pb -1.1014 -1.2185 -3.5038 0
M  V30 40 Ba 0.3985 -1.1947 -3.5064 0
M  V30 41 Pb 1.8983 -1.1729 -3.5085 0
M  V30 42 Pb 3.8709 1.5879 -1.2335 0
M  V30 43 Ba 3.8899 0.0881 -1.2334 0
M  V30 44 Pb 3.9088 -1.4117 -1.2335 0
M  V30 45 Pb -1.1328 1.2685 3.5038 0
M  V30 46 Ba 0.3671 1.2824 3.5063 0
M  V30 47 Pb 1.8670 1.2984 3.5084 0
M  V30 48 Pb -4.0139 1.4886 4.4926 0
M  V30 49 Ba -3.9925 -0.0113 4.4899 0
M  V30 50 Pb -3.9760 -1.5112 4.4926 0
M  V30 51 Pb -1.1014 -1.2185 3.5038 0
M  V30 52 Ba 0.3985 -1.1947 3.5064 0
M  V30 53 Pb 1.8983 -1.1729 3.5085 0
M  V30 54 Pb 3.8709 1.5879 1.2335 0
M  V30 55 Ba 3.8899 0.0881 1.2334 0
M  V30 56 Pb 3.9088 -1.4117 1.2335 0
M  V30 57 Pb -3.4276 1.3288 -1.5000 0
M  V30 58 Ba -3.4284 1.3266 -0.0000 0
M  V30 59 Pb -3.4276 1.3288 1.5000 0
M  V30 60 Pb -3.3938 -1.3367 -1.5000 0
M  V30 61 Ba -3.3947 -1.3345 0.0000 0
M  V30 62 Pb -3.3938 -1.3367 1.5000 0
M  V30 63 Pb 1.5752 3.5676 -1.5000 0
M  V30 64 Ba 1.5753 3.5676 -0.0000 0
M  V30 65 Pb 1.5752 3.5676 1.5000 0
M  V30 66 Pb 1.6637 -3.4486 -1.5000 0
M  V30 67 Ba 1.6638 -3.4486 0.0000 0
M  V30 68 Pb 1.6637 -3.4486 1.5000 0
M  V30 END ATOM
M  V30 BEGIN BOND
M  V30 1 1 1 2
M  V30 2 1 1 3
M  V30 3 1 1 4
M  V30 4 1 5 6
M  V30 5 1 5 7
M  V30 6 1 5 8
M  V30 7 1 9 10
M  V30 8 1 9 11
M  V30 9 1 9 12
M  V30 10 1 13 14
M  V30 11 1 13 15
M  V30 12 1 13 16
M  V30 13 1 17 18
M  V30 14 1 17 19
M  V30 15 1 17 20
M  V30 16 1 21 22
M  V30 17 1 21 23
M  V30 18 1 21 24
M  V30 19 1 25 26
M  V30 20 1 25 27
M  V30 21 1 25 28
M  V30 22 1 29 30
M  V30 23 1 29 31
M  V30 24 1 29 32
M  V30 25 1 33 34
M  V30 26 1 34 35
M  V30 27 1 36 37
M  V30 28 1 37 38
M  V30 29 1 39 40
M  V30 30 1 40 41
M  V30 31 1 42 43
M  V30 32 1 43 44
M  V30 33 1 45 46
M  V30 34 1 46 47
M  V30 35 1 48 49
M  V30 36 1 49 50
M  V30 37 1 51 52
M  V30 38 1 52 53
M  V30 39 1 54 55
M  V30 40 1 55 56
M  V30 41 1 57 58
M  V30 42 1 58 59
M  V30 43 1 60 61
M  V30 44 1 61 62
M  V30 45 1 63 64
M  V30 46 1 64 65
M  V30 47 1 66 67
M  V30 48 1 67 68
M  V30 49 1 2 33
M  V30 50 1 10 35
M  V30 51 1 3 36
M  V30 52 1 6 38
M  V30 53 1 7 39
M  V30 54 1 14 41
M  V30 55 1 12 42
M  V30 56 1 15 44
M  V30 57 1 18 45
M  V30 58 1 26 47
M  V30 59 1 20 48
M  V30 60 1 22 50
M  V30 61 1 24 51
M  V30 62 1 30 53
M  V30 63 1 27 54
M  V30 64 1 32 56
M  V30 65 1 4 57
M  V30 66 1 19 59
M  V30 67 1 8 60
M  V30 68 1 23 62
M  V30 69 1 11 63
M  V30 70 1 28 65
M  V30 71 1 16 66
M  V30 72 1 31 68
M  V30 END BOND
M  V30 END CTAB
M  END

$$$$
