
     RDKit          3D

  0  0  0  0  0  0  0  0  0  0999 V3000
M  V30 BEGIN CTAB
M  V30 COUNTS 34 36 0 0 0
M  V30 BEGIN ATOM
M  V30 1 Ag -0.0285 -0.0164 4.0420 0
M  V30 2 Fe -1.0728 -0.6194 3.1380 0
M  V30 3 Fe 1.0156 -0.6194 3.1377 0
M  V30 4 Fe -0.0286 1.1892 3.1377 0
M  V30 5 Ag -3.6890 -2.1298 -2.0034 0
M  V30 6 Fe -3.6804 -2.1249 -0.5034 0
M  V30 7 Fe -3.3153 -0.8072 -1.4139 0
M  V30 8 Fe -2.3567 -2.4675 -1.4139 0
M  V30 9 Ag 3.6305 -2.1298 -2.0044 0
M  V30 10 Fe 3.6223 -2.1249 -0.5043 0
M  V30 11 Fe 2.2984 -2.4675 -1.4145 0
M  V30 12 Fe 3.2569 -0.8072 -1.4148 0
M  V30 13 Ag -0.0292 4.2090 -2.0044 0
M  V30 14 Fe -0.0290 4.1994 -0.5043 0
M  V30 15 Fe 0.9294 3.2242 -1.4148 0
M  V30 16 Fe -0.9877 3.2242 -1.4145 0
M  V30 17 Pb -1.8758 -1.0830 2.7426 0
M  V30 18 Ba -2.6907 -1.5535 1.5673 0
M  V30 19 Pb -3.6054 -2.0816 0.4936 0
M  V30 20 Pb 1.8186 -1.0830 2.7422 0
M  V30 21 Ba 2.6331 -1.5535 1.5667 0
M  V30 22 Pb 3.5475 -2.0816 0.4927 0
M  V30 23 Pb -0.0286 2.1164 2.7422 0
M  V30 24 Ba -0.0288 3.0571 1.5667 0
M  V30 25 Pb -0.0289 4.1130 0.4927 0
M  V30 26 Pb -1.5228 -2.7379 -0.9418 0
M  V30 27 Ba -0.0291 -2.7075 -0.9952 0
M  V30 28 Pb 1.4646 -2.7379 -0.9422 0
M  V30 29 Pb -3.1325 0.0502 -0.9418 0
M  V30 30 Ba -2.3593 1.3285 -0.9952 0
M  V30 31 Pb -1.6388 2.6373 -0.9422 0
M  V30 32 Pb 3.0743 0.0502 -0.9426 0
M  V30 33 Ba 2.3011 1.3285 -0.9958 0
M  V30 34 Pb 1.5806 2.6373 -0.9426 0
M  V30 END ATOM
M  V30 BEGIN BOND
M  V30 1 1 1 2
M  V30 2 1 1 3
M  V30 3 1 1 4
M  V30 4 1 5 6
M  V30 5 1 5 7
M  V30 6 1 5 8
M  V30 7 1 9 10
M  V30 8 1 9 11
M  V30 9 1 9 12
M  V30 10 1 13 14
M  V30 11 1 13 15
M  V30 12 1 13 16
M  V30 13 1 17 18
M  V30 14 1 18 19
M  V30 15 1 20 21
M  V30 16 1 21 22
M  V30 17 1 23 24
M  V30 18 1 24 25
M  V30 19 1 26 27
M  V30 20 1 27 28
M  V30 21 1 29 30
M  V30 22 1 30 31
M  V30 23 1 32 33
M  V30 24 1 33 34
M  V30 25 1 2 17
M  V30 26 1 6 19
M  V30 27 1 3 20
M  V30 28 1 10 22
M  V30 29 1 4 23
M  V30 30 1 14 25
M  V30 31 1 8 26
M  V30 32 1 11 28
M  V30 33 1 7 29
M  V30 34 1 16 31
M  V30 35 1 12 32
M  V30 36 1 15 34
M  V30 END BOND
M  V30 END CTAB
M  END

$$$$
