
     RDKit          3D

  0  0  0  0  0  0  0  0  0  0999 V3000
M  V30 BEGIN CTAB
M  V30 COUNTS 51 54 0 0 0
M  V30 BEGIN ATOM
M  V30 1 Ag -4.0040 -2.3775 -4.0110 0
M  V30 2 Fe -3.8281 -2.2792 -2.5246 0
M  V30 3 Fe -3.4890 -0.9716 -3.9208 0
M  V30 4 Fe -2.5225 -2.5971 -3.9277 0
M  V30 5 Ag -3.9952 -2.4058 3.9478 0
M  V30 6 Fe -3.8226 -2.2969 2.4618 0
M  V30 7 Fe -2.5139 -2.6249 3.8596 0
M  V30 8 Fe -3.4803 -0.9993 3.8665 0
M  V30 9 Ag 3.9332 -2.2759 -4.0195 0
M  V30 10 Fe 2.4580 -2.5334 -3.9331 0
M  V30 11 Fe 3.3826 -0.8836 -3.9282 0
M  V30 12 Fe 3.7580 -2.1821 -2.5327 0
M  V30 13 Ag 3.9420 -2.3046 3.9393 0
M  V30 14 Fe 3.7635 -2.2001 2.4536 0
M  V30 15 Fe 3.3913 -0.9117 3.8591 0
M  V30 16 Fe 2.4666 -2.5614 3.8543 0
M  V30 17 Ag -0.1234 4.5471 -3.9905 0
M  V30 18 Fe -1.0539 3.3735 -3.9079 0
M  V30 19 Fe -0.1191 4.3391 -2.5050 0
M  V30 20 Fe 0.8371 3.3978 -3.9100 0
M  V30 21 Ag -0.1142 4.5186 3.9683 0
M  V30 22 Fe -1.0450 3.3457 3.8794 0
M  V30 23 Fe 0.8460 3.3698 3.8773 0
M  V30 24 Fe -0.1133 4.3212 2.4813 0
M  V30 25 Pb -3.7273 -2.2235 -1.5312 0
M  V30 26 Ba -3.7132 -2.2214 -0.0313 0
M  V30 27 Pb -3.7240 -2.2341 1.4686 0
M  V30 28 Pb -1.5302 -2.7128 -3.8831 0
M  V30 29 Ba -0.0302 -2.7169 -3.8764 0
M  V30 30 Pb 1.4691 -2.6744 -3.8863 0
M  V30 31 Pb 3.6579 -2.1290 -1.5392 0
M  V30 32 Ba 3.6470 -2.1274 -0.0392 0
M  V30 33 Pb 3.6613 -2.1399 1.4607 0
M  V30 34 Pb -1.5217 -2.7403 3.8120 0
M  V30 35 Ba -0.0218 -2.7444 3.8019 0
M  V30 36 Pb 1.4776 -2.7021 3.8087 0
M  V30 37 Pb -3.1165 -0.0449 -3.8717 0
M  V30 38 Ba -2.4035 1.2748 -3.8595 0
M  V30 39 Pb -1.6500 2.5718 -3.8640 0
M  V30 40 Pb 2.9865 0.0333 -3.8783 0
M  V30 41 Ba 2.2401 1.3343 -3.8644 0
M  V30 42 Pb 1.4536 2.6116 -3.8674 0
M  V30 43 Pb -3.1078 -0.0723 3.8233 0
M  V30 44 Ba -2.3948 1.2474 3.8189 0
M  V30 45 Pb -1.6413 2.5443 3.8310 0
M  V30 46 Pb 2.9952 0.0056 3.8167 0
M  V30 47 Ba 2.2488 1.3067 3.8139 0
M  V30 48 Pb 1.4624 2.5839 3.8277 0
M  V30 49 Pb -0.1165 4.2195 -1.5122 0
M  V30 50 Ba -0.1145 4.1997 -0.0123 0
M  V30 51 Pb -0.1130 4.2088 1.4876 0
M  V30 END ATOM
M  V30 BEGIN BOND
M  V30 1 1 1 2
M  V30 2 1 1 3
M  V30 3 1 1 4
M  V30 4 1 5 6
M  V30 5 1 5 7
M  V30 6 1 5 8
M  V30 7 1 9 10
M  V30 8 1 9 11
M  V30 9 1 9 12
M  V30 10 1 13 14
M  V30 11 1 13 15
M  V30 12 1 13 16
M  V30 13 1 17 18
M  V30 14 1 17 19
M  V30 15 1 17 20
M  V30 16 1 21 22
M  V30 17 1 21 23
M  V30 18 1 21 24
M  V30 19 1 25 26
M  V30 20 1 26 27
M  V30 21 1 28 29
M  V30 22 1 29 30
M  V30 23 1 31 32
M  V30 24 1 32 33
M  V30 25 1 34 35
M  V30 26 1 35 36
M  V30 27 1 37 38
M  V30 28 1 38 39
M  V30 29 1 40 41
M  V30 30 1 41 42
M  V30 31 1 43 44
M  V30 32 1 44 45
M  V30 33 1 46 47
M  V30 34 1 47 48
M  V30 35 1 49 50
M  V30 36 1 50 51
M  V30 37 1 2 25
M  V30 38 1 6 27
M  V30 39 1 4 28
M  V30 40 1 10 30
M  V30 41 1 12 31
M  V30 42 1 14 33
M  V30 43 1 7 34
M  V30 44 1 16 36
M  V30 45 1 3 37
M  V30 46 1 18 39
M  V30 47 1 11 40
M  V30 48 1 20 42
M  V30 49 1 8 43
M  V30 50 1 22 45
M  V30 51 1 15 46
M  V30 52 1 23 48
M  V30 53 1 19 49
M  V30 54 1 24 51
M  V30 END BOND
M  V30 END CTAB
M  END

$$$$
