
     RDKit          3D

  0  0  0  0  0  0  0  0  0  0999 V3000
M  V30 BEGIN CTAB
M  V30 COUNTS 34 36 0 0 0
M  V30 BEGIN ATOM
M  V30 1 Ag 0.1714 0.1960 4.8658 0
M  V30 2 Fe -0.6307 -0.4826 3.7937 0
M  V30 3 Fe 0.8341 -0.4379 3.6769 0
M  V30 4 Fe -0.1214 0.8788 3.5642 0
M  V30 5 Ag -4.0946 -2.0108 -1.4373 0
M  V30 6 Fe -3.2734 -1.7897 -0.1999 0
M  V30 7 Fe -3.0761 -0.9187 -1.5644 0
M  V30 8 Fe -2.6241 -2.3107 -1.4117 0
M  V30 9 Ag 3.8219 -2.1552 -1.7632 0
M  V30 10 Fe 3.1504 -1.9866 -0.4314 0
M  V30 11 Fe 2.3360 -2.3086 -1.6122 0
M  V30 12 Fe 3.1076 -0.8866 -1.4078 0
M  V30 13 Ag -0.0113 4.7072 -1.5715 0
M  V30 14 Fe -0.2978 3.7855 -0.4251 0
M  V30 15 Fe 0.7962 3.4767 -1.2892 0
M  V30 16 Fe -0.5454 3.3186 -1.7516 0
M  V30 17 Pb -1.1500 -0.9418 3.0716 0
M  V30 18 Ba -1.9491 -1.2969 1.8512 0
M  V30 19 Pb -2.7478 -1.7096 0.6489 0
M  V30 20 Pb 1.2865 -0.9217 2.9257 0
M  V30 21 Ba 1.9879 -1.3729 1.6773 0
M  V30 22 Pb 2.6870 -1.8808 0.4495 0
M  V30 23 Pb -0.3644 1.3630 2.7250 0
M  V30 24 Ba -0.4092 2.2497 1.5175 0
M  V30 25 Pb -0.4764 3.1270 0.3043 0
M  V30 26 Pb -1.6434 -2.5085 -1.3763 0
M  V30 27 Ba -0.1445 -2.4683 -1.4517 0
M  V30 28 Pb 1.3558 -2.4846 -1.5056 0
M  V30 29 Pb -2.4048 -0.1938 -1.7112 0
M  V30 30 Ba -1.6450 1.0970 -1.7642 0
M  V30 31 Pb -0.8667 2.3762 -1.8290 0
M  V30 32 Pb 2.6869 -0.0166 -1.1549 0
M  V30 33 Ba 1.9850 1.3073 -1.1291 0
M  V30 34 Pb 1.2869 2.6326 -1.0789 0
M  V30 END ATOM
M  V30 BEGIN BOND
M  V30 1 1 1 2
M  V30 2 1 1 3
M  V30 3 1 1 4
M  V30 4 1 5 6
M  V30 5 1 5 7
M  V30 6 1 5 8
M  V30 7 1 9 10
M  V30 8 1 9 11
M  V30 9 1 9 12
M  V30 10 1 13 14
M  V30 11 1 13 15
M  V30 12 1 13 16
M  V30 13 1 17 18
M  V30 14 1 18 19
M  V30 15 1 20 21
M  V30 16 1 21 22
M  V30 17 1 23 24
M  V30 18 1 24 25
M  V30 19 1 26 27
M  V30 20 1 27 28
M  V30 21 1 29 30
M  V30 22 1 30 31
M  V30 23 1 32 33
M  V30 24 1 33 34
M  V30 25 1 2 17
M  V30 26 1 6 19
M  V30 27 1 3 20
M  V30 28 1 10 22
M  V30 29 1 4 23
M  V30 30 1 14 25
M  V30 31 1 8 26
M  V30 32 1 11 28
M  V30 33 1 7 29
M  V30 34 1 16 31
M  V30 35 1 12 32
M  V30 36 1 15 34
M  V30 END BOND
M  V30 END CTAB
M  END

$$$$
