
     RDKit          3D

  0  0  0  0  0  0  0  0  0  0999 V3000
M  V30 BEGIN CTAB
M  V30 COUNTS 34 36 0 0 0
M  V30 BEGIN ATOM
M  V30 1 Ag -0.0369 -0.0213 4.6283 0
M  V30 2 Fe -1.1911 -0.6877 3.9399 0
M  V30 3 Fe 1.1202 -0.6877 3.9450 0
M  V30 4 Fe -0.0354 1.3140 3.9450 0
M  V30 5 Ag -3.7318 -2.1546 -1.4380 0
M  V30 6 Fe -3.5610 -2.0559 0.0489 0
M  V30 7 Fe -3.5568 -0.7191 -1.8365 0
M  V30 8 Fe -2.4012 -2.7207 -1.8365 0
M  V30 9 Ag 3.6846 -2.1546 -1.4217 0
M  V30 10 Fe 3.5072 -2.0559 0.0645 0
M  V30 11 Fe 2.3557 -2.7208 -1.8261 0
M  V30 12 Fe 3.5114 -0.7191 -1.8210 0
M  V30 13 Ag -0.0236 4.2683 -1.4217 0
M  V30 14 Fe -0.0269 4.0653 0.0645 0
M  V30 15 Fe 1.1329 3.4005 -1.8210 0
M  V30 16 Fe -1.1784 3.4005 -1.8261 0
M  V30 17 Pb -1.9672 -1.1357 3.4961 0
M  V30 18 Ba -2.7054 -1.5620 2.2619 0
M  V30 19 Pb -3.4617 -1.9986 1.0423 0
M  V30 20 Pb 1.8983 -1.1357 3.5046 0
M  V30 21 Ba 2.6419 -1.5620 2.2737 0
M  V30 22 Pb 3.4036 -1.9986 1.0574 0
M  V30 23 Pb -0.0344 2.2118 3.5046 0
M  V30 24 Ba -0.0317 3.0689 2.2737 0
M  V30 25 Pb -0.0291 3.9469 1.0574 0
M  V30 26 Pb -1.5221 -3.1105 -2.1109 0
M  V30 27 Ba -0.0221 -3.1000 -2.1002 0
M  V30 28 Pb 1.4778 -3.1105 -2.1043 0
M  V30 29 Pb -3.4548 0.2371 -2.1109 0
M  V30 30 Ba -2.6958 1.5309 -2.1002 0
M  V30 31 Pb -1.9548 2.8351 -2.1043 0
M  V30 32 Pb 3.4105 0.2371 -2.0958 0
M  V30 33 Ba 2.6515 1.5309 -2.0885 0
M  V30 34 Pb 1.9106 2.8351 -2.0958 0
M  V30 END ATOM
M  V30 BEGIN BOND
M  V30 1 1 1 2
M  V30 2 1 1 3
M  V30 3 1 1 4
M  V30 4 1 5 6
M  V30 5 1 5 7
M  V30 6 1 5 8
M  V30 7 1 9 10
M  V30 8 1 9 11
M  V30 9 1 9 12
M  V30 10 1 13 14
M  V30 11 1 13 15
M  V30 12 1 13 16
M  V30 13 1 17 18
M  V30 14 1 18 19
M  V30 15 1 20 21
M  V30 16 1 21 22
M  V30 17 1 23 24
M  V30 18 1 24 25
M  V30 19 1 26 27
M  V30 20 1 27 28
M  V30 21 1 29 30
M  V30 22 1 30 31
M  V30 23 1 32 33
M  V30 24 1 33 34
M  V30 25 1 2 17
M  V30 26 1 6 19
M  V30 27 1 3 20
M  V30 28 1 10 22
M  V30 29 1 4 23
M  V30 30 1 14 25
M  V30 31 1 8 26
M  V30 32 1 11 28
M  V30 33 1 7 29
M  V30 34 1 16 31
M  V30 35 1 12 32
M  V30 36 1 15 34
M  V30 END BOND
M  V30 END CTAB
M  END

$$$$
