
     RDKit          3D

  0  0  0  0  0  0  0  0  0  0999 V3000
M  V30 BEGIN CTAB
M  V30 COUNTS 34 36 0 0 0
M  V30 BEGIN ATOM
M  V30 1 Ag 2.5816 1.3061 2.5971 0
M  V30 2 Fe 1.9272 0.5617 1.4731 0
M  V30 3 Fe 3.1065 0.0641 1.9385 0
M  V30 4 Fe 1.9339 -0.0429 2.7059 0
M  V30 5 Ag -2.5822 1.3055 2.6011 0
M  V30 6 Fe -1.9291 0.5614 1.4761 0
M  V30 7 Fe -1.9340 -0.0434 2.7089 0
M  V30 8 Fe -3.1073 0.0635 1.9425 0
M  V30 9 Ag 2.5821 1.3057 -2.6011 0
M  V30 10 Fe 1.9291 0.5616 -1.4761 0
M  V30 11 Fe 1.9340 -0.0432 -2.7089 0
M  V30 12 Fe 3.1072 0.0637 -1.9425 0
M  V30 13 Ag -2.5817 1.3060 -2.5971 0
M  V30 14 Fe -1.9273 0.5616 -1.4731 0
M  V30 15 Fe -3.1065 0.0639 -1.9385 0
M  V30 16 Fe -1.9339 -0.0430 -2.7059 0
M  V30 17 Pb 1.4976 0.0579 0.7256 0
M  V30 18 Ba -0.0015 0.0593 0.7336 0
M  V30 19 Pb -1.5005 0.0577 0.7279 0
M  V30 20 Pb 1.5010 -0.9420 2.7786 0
M  V30 21 Ba 0.0001 -0.9365 2.7793 0
M  V30 22 Pb -1.5008 -0.9423 2.7809 0
M  V30 23 Pb 1.5005 0.0578 -0.7279 0
M  V30 24 Ba 0.0014 0.0593 -0.7336 0
M  V30 25 Pb -1.4976 0.0578 -0.7256 0
M  V30 26 Pb 1.5009 -0.9422 -2.7810 0
M  V30 27 Ba -0.0000 -0.9365 -2.7793 0
M  V30 28 Pb -1.5010 -0.9420 -2.7786 0
M  V30 29 Pb 3.4568 -0.7640 1.4994 0
M  V30 30 Ba 3.4536 -0.7559 -0.0019 0
M  V30 31 Pb 3.4574 -0.7643 -1.5033 0
M  V30 32 Pb -3.4574 -0.7645 1.5033 0
M  V30 33 Ba -3.4536 -0.7561 0.0019 0
M  V30 34 Pb -3.4567 -0.7642 -1.4994 0
M  V30 END ATOM
M  V30 BEGIN BOND
M  V30 1 1 1 2
M  V30 2 1 1 3
M  V30 3 1 1 4
M  V30 4 1 5 6
M  V30 5 1 5 7
M  V30 6 1 5 8
M  V30 7 1 9 10
M  V30 8 1 9 11
M  V30 9 1 9 12
M  V30 10 1 13 14
M  V30 11 1 13 15
M  V30 12 1 13 16
M  V30 13 1 17 18
M  V30 14 1 18 19
M  V30 15 1 20 21
M  V30 16 1 21 22
M  V30 17 1 23 24
M  V30 18 1 24 25
M  V30 19 1 26 27
M  V30 20 1 27 28
M  V30 21 1 29 30
M  V30 22 1 30 31
M  V30 23 1 32 33
M  V30 24 1 33 34
M  V30 25 1 2 17
M  V30 26 1 6 19
M  V30 27 1 4 20
M  V30 28 1 7 22
M  V30 29 1 10 23
M  V30 30 1 14 25
M  V30 31 1 11 26
M  V30 32 1 16 28
M  V30 33 1 3 29
M  V30 34 1 12 31
M  V30 35 1 8 32
M  V30 36 1 15 34
M  V30 END BOND
M  V30 END CTAB
M  END

$$$$
