
     RDKit          3D

  0  0  0  0  0  0  0  0  0  0999 V3000
M  V30 BEGIN CTAB
M  V30 COUNTS 34 36 0 0 0
M  V30 BEGIN ATOM
M  V30 1 Ag -0.0527 -0.0304 4.7098 0
M  V30 2 Fe -1.1832 -0.6831 3.9709 0
M  V30 3 Fe 1.0855 -0.6831 3.9829 0
M  V30 4 Fe -0.0488 1.2817 3.9829 0
M  V30 5 Ag -3.7908 -2.1886 -1.4747 0
M  V30 6 Fe -3.5800 -2.0669 0.0055 0
M  V30 7 Fe -3.5702 -0.7514 -1.8429 0
M  V30 8 Fe -2.4358 -2.7162 -1.8429 0
M  V30 9 Ag 3.7509 -2.1887 -1.4345 0
M  V30 10 Fe 3.5244 -2.0670 0.0433 0
M  V30 11 Fe 2.3999 -2.7162 -1.8172 0
M  V30 12 Fe 3.5342 -0.7514 -1.8051 0
M  V30 13 Ag -0.0200 4.3427 -1.4345 0
M  V30 14 Fe -0.0279 4.0857 0.0433 0
M  V30 15 Fe 1.1164 3.4364 -1.8051 0
M  V30 16 Fe -1.1524 3.4364 -1.8172 0
M  V30 17 Pb -1.9197 -1.1083 3.4448 0
M  V30 18 Ba -2.6838 -1.5495 2.2317 0
M  V30 19 Pb -3.4064 -1.9667 0.9852 0
M  V30 20 Pb 1.8276 -1.1084 3.4647 0
M  V30 21 Ba 2.6045 -1.5495 2.2598 0
M  V30 22 Pb 3.3403 -1.9667 1.0210 0
M  V30 23 Pb -0.0461 2.1369 3.4647 0
M  V30 24 Ba -0.0397 3.0303 2.2598 0
M  V30 25 Pb -0.0331 3.8761 1.0210 0
M  V30 26 Pb -1.5164 -3.0390 -2.0678 0
M  V30 27 Ba -0.0167 -3.0628 -2.0768 0
M  V30 28 Pb 1.4830 -3.0391 -2.0519 0
M  V30 29 Pb -3.3901 0.2062 -2.0678 0
M  V30 30 Ba -2.6608 1.5170 -2.0768 0
M  V30 31 Pb -1.8904 2.8038 -2.0519 0
M  V30 32 Pb 3.3566 0.2062 -2.0319 0
M  V30 33 Ba 2.6274 1.5169 -2.0486 0
M  V30 34 Pb 1.8568 2.8038 -2.0319 0
M  V30 END ATOM
M  V30 BEGIN BOND
M  V30 1 1 1 2
M  V30 2 1 1 3
M  V30 3 1 1 4
M  V30 4 1 5 6
M  V30 5 1 5 7
M  V30 6 1 5 8
M  V30 7 1 9 10
M  V30 8 1 9 11
M  V30 9 1 9 12
M  V30 10 1 13 14
M  V30 11 1 13 15
M  V30 12 1 13 16
M  V30 13 1 17 18
M  V30 14 1 18 19
M  V30 15 1 20 21
M  V30 16 1 21 22
M  V30 17 1 23 24
M  V30 18 1 24 25
M  V30 19 1 26 27
M  V30 20 1 27 28
M  V30 21 1 29 30
M  V30 22 1 30 31
M  V30 23 1 32 33
M  V30 24 1 33 34
M  V30 25 1 2 17
M  V30 26 1 6 19
M  V30 27 1 3 20
M  V30 28 1 10 22
M  V30 29 1 4 23
M  V30 30 1 14 25
M  V30 31 1 8 26
M  V30 32 1 11 28
M  V30 33 1 7 29
M  V30 34 1 16 31
M  V30 35 1 12 32
M  V30 36 1 15 34
M  V30 END BOND
M  V30 END CTAB
M  END

$$$$
