
     RDKit          3D

  0  0  0  0  0  0  0  0  0  0999 V3000
M  V30 BEGIN CTAB
M  V30 COUNTS 17 18 0 0 0
M  V30 BEGIN ATOM
M  V30 1 Ag -0.1727 -1.1646 1.5000 0
M  V30 2 Fe -1.4816 -1.8974 1.5000 0
M  V30 3 Fe 1.1163 -1.9318 1.5000 0
M  V30 4 Fe -0.1529 0.3352 1.5000 0
M  V30 5 Ag -0.1727 -1.1646 -1.5000 0
M  V30 6 Fe -1.4816 -1.8974 -1.5000 0
M  V30 7 Fe -0.1529 0.3352 -1.5000 0
M  V30 8 Fe 1.1163 -1.9318 -1.5000 0
M  V30 9 Pb -2.3542 -2.3858 1.5000 0
M  V30 10 Ba -2.3542 -2.3858 0.0000 0
M  V30 11 Pb -2.3542 -2.3858 -1.5000 0
M  V30 12 Pb 1.9756 -2.4432 1.5000 0
M  V30 13 Ba 1.9756 -2.4432 -0.0000 0
M  V30 14 Pb 1.9756 -2.4432 -1.5000 0
M  V30 15 Pb -0.1396 1.3352 1.5000 0
M  V30 16 Ba -0.1396 1.3352 0.0000 0
M  V30 17 Pb -0.1396 1.3352 -1.5000 0
M  V30 END ATOM
M  V30 BEGIN BOND
M  V30 1 1 1 2
M  V30 2 1 1 3
M  V30 3 1 1 4
M  V30 4 1 5 6
M  V30 5 1 5 7
M  V30 6 1 5 8
M  V30 7 1 9 10
M  V30 8 1 10 11
M  V30 9 1 12 13
M  V30 10 1 13 14
M  V30 11 1 15 16
M  V30 12 1 16 17
M  V30 13 1 2 9
M  V30 14 1 3 12
M  V30 15 1 4 15
M  V30 16 1 6 11
M  V30 17 1 8 14
M  V30 18 1 7 17
M  V30 END BOND
M  V30 END CTAB
M  END

$$$$
