
     RDKit          3D

  0  0  0  0  0  0  0  0  0  0999 V3000
M  V30 BEGIN CTAB
M  V30 COUNTS 51 54 0 0 0
M  V30 BEGIN ATOM
M  V30 1 Ag -3.9483 -2.3242 -3.9318 0
M  V30 2 Fe -3.5797 -2.1148 -2.4930 0
M  V30 3 Fe -3.2666 -1.0537 -3.5182 0
M  V30 4 Fe -2.5045 -2.3436 -3.5257 0
M  V30 5 Ag -3.9356 -2.3619 3.8686 0
M  V30 6 Fe -3.5717 -2.1386 2.4306 0
M  V30 7 Fe -2.4931 -2.3773 3.4576 0
M  V30 8 Fe -3.2552 -1.0874 3.4651 0
M  V30 9 Ag 3.8644 -2.2456 -3.9442 0
M  V30 10 Fe 2.4225 -2.2940 -3.5335 0
M  V30 11 Fe 3.1585 -0.9891 -3.5284 0
M  V30 12 Fe 3.4961 -2.0436 -2.5042 0
M  V30 13 Ag 3.8770 -2.2835 3.8562 0
M  V30 14 Fe 3.5041 -2.0675 2.4194 0
M  V30 15 Fe 3.1698 -1.0230 3.4549 0
M  V30 16 Fe 2.4338 -2.3279 3.4498 0
M  V30 17 Ag -0.1100 4.4810 -3.9052 0
M  V30 18 Fe -0.8460 3.2379 -3.5014 0
M  V30 19 Fe -0.1034 4.0486 -2.4688 0
M  V30 20 Fe 0.6521 3.2529 -3.5038 0
M  V30 21 Ag -0.0972 4.4432 3.8952 0
M  V30 22 Fe -0.8345 3.2041 3.4818 0
M  V30 23 Fe 0.6636 3.2191 3.4795 0
M  V30 24 Fe -0.0952 4.0248 2.4547 0
M  V30 25 Pb -3.3425 -1.9802 -1.5309 0
M  V30 26 Ba -3.3334 -1.9835 -0.0309 0
M  V30 27 Pb -3.3376 -1.9947 1.4691 0
M  V30 28 Pb -1.5403 -2.3560 -3.2608 0
M  V30 29 Ba -0.0403 -2.3413 -3.2587 0
M  V30 30 Pb 1.4596 -2.3258 -3.2655 0
M  V30 31 Pb 3.2593 -1.9139 -1.5413 0
M  V30 32 Ba 3.2550 -1.9174 -0.0413 0
M  V30 33 Pb 3.2642 -1.9284 1.4586 0
M  V30 34 Pb -1.5298 -2.3872 3.1894 0
M  V30 35 Ba -0.0299 -2.3725 3.1825 0
M  V30 36 Pb 1.4700 -2.3571 3.1846 0
M  V30 37 Pb -2.8109 -0.2054 -3.2482 0
M  V30 38 Ba -2.0743 1.1012 -3.2387 0
M  V30 39 Pb -1.3371 2.4076 -3.2380 0
M  V30 40 Pb 2.6867 -0.1502 -3.2570 0
M  V30 41 Ba 1.9240 1.1414 -3.2450 0
M  V30 42 Pb 1.1606 2.4326 -3.2420 0
M  V30 43 Pb -2.8004 -0.2366 3.2018 0
M  V30 44 Ba -2.0638 1.0700 3.2025 0
M  V30 45 Pb -1.3265 2.3763 3.2120 0
M  V30 46 Pb 2.6972 -0.1815 3.1931 0
M  V30 47 Ba 1.9345 1.1101 3.1961 0
M  V30 48 Pb 1.1712 2.4014 3.2081 0
M  V30 49 Pb -0.0990 3.7703 -1.5084 0
M  V30 50 Ba -0.0965 3.7554 -0.0084 0
M  V30 51 Pb -0.0941 3.7558 1.4916 0
M  V30 END ATOM
M  V30 BEGIN BOND
M  V30 1 1 1 2
M  V30 2 1 1 3
M  V30 3 1 1 4
M  V30 4 1 5 6
M  V30 5 1 5 7
M  V30 6 1 5 8
M  V30 7 1 9 10
M  V30 8 1 9 11
M  V30 9 1 9 12
M  V30 10 1 13 14
M  V30 11 1 13 15
M  V30 12 1 13 16
M  V30 13 1 17 18
M  V30 14 1 17 19
M  V30 15 1 17 20
M  V30 16 1 21 22
M  V30 17 1 21 23
M  V30 18 1 21 24
M  V30 19 1 25 26
M  V30 20 1 26 27
M  V30 21 1 28 29
M  V30 22 1 29 30
M  V30 23 1 31 32
M  V30 24 1 32 33
M  V30 25 1 34 35
M  V30 26 1 35 36
M  V30 27 1 37 38
M  V30 28 1 38 39
M  V30 29 1 40 41
M  V30 30 1 41 42
M  V30 31 1 43 44
M  V30 32 1 44 45
M  V30 33 1 46 47
M  V30 34 1 47 48
M  V30 35 1 49 50
M  V30 36 1 50 51
M  V30 37 1 2 25
M  V30 38 1 6 27
M  V30 39 1 4 28
M  V30 40 1 10 30
M  V30 41 1 12 31
M  V30 42 1 14 33
M  V30 43 1 7 34
M  V30 44 1 16 36
M  V30 45 1 3 37
M  V30 46 1 18 39
M  V30 47 1 11 40
M  V30 48 1 20 42
M  V30 49 1 8 43
M  V30 50 1 22 45
M  V30 51 1 15 46
M  V30 52 1 23 48
M  V30 53 1 19 49
M  V30 54 1 24 51
M  V30 END BOND
M  V30 END CTAB
M  END

$$$$
