
     RDKit          3D

  0  0  0  0  0  0  0  0  0  0999 V3000
M  V30 BEGIN CTAB
M  V30 COUNTS 34 36 0 0 0
M  V30 BEGIN ATOM
M  V30 1 Ag 0.9711 0.5606 3.9408 0
M  V30 2 Fe -0.3243 -0.1872 3.9313 0
M  V30 3 Fe 1.0702 -0.6537 3.0642 0
M  V30 4 Fe -0.0310 1.2537 3.0642 0
M  V30 5 Ag -3.5196 -2.0320 -0.8704 0
M  V30 6 Fe -2.9680 -1.7135 0.4934 0
M  V30 7 Fe -3.1007 -0.7152 -1.4612 0
M  V30 8 Fe -2.1697 -2.3278 -1.4612 0
M  V30 9 Ag 3.8361 -1.9172 -1.5455 0
M  V30 10 Fe 3.0707 -2.5468 -0.4258 0
M  V30 11 Fe 2.4659 -2.1812 -2.0968 0
M  V30 12 Fe 3.1826 -0.8081 -0.7808 0
M  V30 13 Ag 0.2577 4.2808 -1.5455 0
M  V30 14 Fe -0.6703 3.9327 -0.4258 0
M  V30 15 Fe 0.8915 3.1603 -0.7808 0
M  V30 16 Fe -0.6560 3.2262 -2.0968 0
M  V30 17 Pb -1.1815 -0.6821 3.8141 0
M  V30 18 Ba -1.9574 -1.1301 2.6064 0
M  V30 19 Pb -2.8260 -1.6316 1.4870 0
M  V30 20 Pb 1.1309 -1.5482 2.6172 0
M  V30 21 Ba 1.8151 -2.2067 1.4578 0
M  V30 22 Pb 2.4843 -2.8882 0.3029 0
M  V30 23 Pb -0.7753 1.7535 2.6172 0
M  V30 24 Ba -1.0035 2.6752 1.4578 0
M  V30 25 Pb -1.2591 3.5955 0.3029 0
M  V30 26 Pb -1.3758 -2.5390 -2.0373 0
M  V30 27 Ba 0.1175 -2.4455 -2.1705 0
M  V30 28 Pb 1.5855 -2.4470 -2.4905 0
M  V30 29 Pb -2.8867 0.0780 -2.0373 0
M  V30 30 Ba -2.0591 1.3245 -2.1705 0
M  V30 31 Pb -1.3263 2.5966 -2.4906 0
M  V30 32 Pb 2.7769 -0.1233 -0.1798 0
M  V30 33 Ba 2.0302 1.1721 -0.2500 0
M  V30 34 Pb 1.2817 2.4665 -0.1798 0
M  V30 END ATOM
M  V30 BEGIN BOND
M  V30 1 1 1 2
M  V30 2 1 1 3
M  V30 3 1 1 4
M  V30 4 1 5 6
M  V30 5 1 5 7
M  V30 6 1 5 8
M  V30 7 1 9 10
M  V30 8 1 9 11
M  V30 9 1 9 12
M  V30 10 1 13 14
M  V30 11 1 13 15
M  V30 12 1 13 16
M  V30 13 1 17 18
M  V30 14 1 18 19
M  V30 15 1 20 21
M  V30 16 1 21 22
M  V30 17 1 23 24
M  V30 18 1 24 25
M  V30 19 1 26 27
M  V30 20 1 27 28
M  V30 21 1 29 30
M  V30 22 1 30 31
M  V30 23 1 32 33
M  V30 24 1 33 34
M  V30 25 1 2 17
M  V30 26 1 6 19
M  V30 27 1 3 20
M  V30 28 1 10 22
M  V30 29 1 4 23
M  V30 30 1 14 25
M  V30 31 1 8 26
M  V30 32 1 11 28
M  V30 33 1 7 29
M  V30 34 1 16 31
M  V30 35 1 12 32
M  V30 36 1 15 34
M  V30 END BOND
M  V30 END CTAB
M  END

$$$$
