
     RDKit          3D

  0  0  0  0  0  0  0  0  0  0999 V3000
M  V30 BEGIN CTAB
M  V30 COUNTS 34 36 0 0 0
M  V30 BEGIN ATOM
M  V30 1 Ag 1.4563 -1.0249 1.3804 0
M  V30 2 Fe 1.4902 -0.4497 2.7654 0
M  V30 3 Fe 2.9282 -0.7497 1.4685 0
M  V30 4 Fe 1.4829 0.4402 1.0599 0
M  V30 5 Ag -1.4581 -1.0249 1.3786 0
M  V30 6 Fe -1.4938 -0.4497 2.7634 0
M  V30 7 Fe -1.4843 0.4402 1.0580 0
M  V30 8 Fe -2.9301 -0.7497 1.4647 0
M  V30 9 Ag 1.4581 -1.0249 -1.3786 0
M  V30 10 Fe 1.4938 -0.4497 -2.7634 0
M  V30 11 Fe 1.4843 0.4402 -1.0580 0
M  V30 12 Fe 2.9301 -0.7497 -1.4647 0
M  V30 13 Ag -1.4563 -1.0249 -1.3804 0
M  V30 14 Fe -1.4902 -0.4497 -2.7654 0
M  V30 15 Fe -2.9282 -0.7497 -1.4685 0
M  V30 16 Fe -1.4829 0.4402 -1.0599 0
M  V30 17 Pb 1.4984 -0.0662 3.6889 0
M  V30 18 Ba -0.0024 -0.0645 3.6920 0
M  V30 19 Pb -1.5033 -0.0662 3.6869 0
M  V30 20 Pb 1.4985 1.4174 0.8482 0
M  V30 21 Ba -0.0006 1.4250 0.8463 0
M  V30 22 Pb -1.4997 1.4173 0.8462 0
M  V30 23 Pb 1.5033 -0.0662 -3.6869 0
M  V30 24 Ba 0.0024 -0.0645 -3.6920 0
M  V30 25 Pb -1.4984 -0.0662 -3.6889 0
M  V30 26 Pb 1.4997 1.4174 -0.8463 0
M  V30 27 Ba 0.0006 1.4251 -0.8463 0
M  V30 28 Pb -1.4985 1.4174 -0.8482 0
M  V30 29 Pb 3.9106 -0.5660 1.5027 0
M  V30 30 Ba 3.9281 -0.5630 0.0026 0
M  V30 31 Pb 3.9126 -0.5661 -1.4976 0
M  V30 32 Pb -3.9126 -0.5661 1.4976 0
M  V30 33 Ba -3.9281 -0.5630 -0.0026 0
M  V30 34 Pb -3.9106 -0.5660 -1.5027 0
M  V30 END ATOM
M  V30 BEGIN BOND
M  V30 1 1 1 2
M  V30 2 1 1 3
M  V30 3 1 1 4
M  V30 4 1 5 6
M  V30 5 1 5 7
M  V30 6 1 5 8
M  V30 7 1 9 10
M  V30 8 1 9 11
M  V30 9 1 9 12
M  V30 10 1 13 14
M  V30 11 1 13 15
M  V30 12 1 13 16
M  V30 13 1 17 18
M  V30 14 1 18 19
M  V30 15 1 20 21
M  V30 16 1 21 22
M  V30 17 1 23 24
M  V30 18 1 24 25
M  V30 19 1 26 27
M  V30 20 1 27 28
M  V30 21 1 29 30
M  V30 22 1 30 31
M  V30 23 1 32 33
M  V30 24 1 33 34
M  V30 25 1 2 17
M  V30 26 1 6 19
M  V30 27 1 4 20
M  V30 28 1 7 22
M  V30 29 1 10 23
M  V30 30 1 14 25
M  V30 31 1 11 26
M  V30 32 1 16 28
M  V30 33 1 3 29
M  V30 34 1 12 31
M  V30 35 1 8 32
M  V30 36 1 15 34
M  V30 END BOND
M  V30 END CTAB
M  END

$$$$
