
     RDKit          3D

  0  0  0  0  0  0  0  0  0  0999 V3000
M  V30 BEGIN CTAB
M  V30 COUNTS 34 36 0 0 0
M  V30 BEGIN ATOM
M  V30 1 Ag -0.0544 -0.0314 4.1776 0
M  V30 2 Fe -1.3149 -0.7592 3.8152 0
M  V30 3 Fe 1.2108 -0.7592 3.8317 0
M  V30 4 Fe -0.0521 1.4282 3.8317 0
M  V30 5 Ag -3.3573 -1.9383 -1.3037 0
M  V30 6 Fe -3.5011 -2.0214 0.1871 0
M  V30 7 Fe -3.4876 -0.5553 -1.8696 0
M  V30 8 Fe -2.2247 -2.7427 -1.8696 0
M  V30 9 Ag 3.3202 -1.9384 -1.2598 0
M  V30 10 Fe 3.4444 -2.0214 0.2327 0
M  V30 11 Fe 2.1951 -2.7427 -1.8406 0
M  V30 12 Fe 3.4579 -0.5554 -1.8240 0
M  V30 13 Ag -0.0186 3.8446 -1.2598 0
M  V30 14 Fe -0.0284 3.9937 0.2327 0
M  V30 15 Fe 1.2480 3.2724 -1.8240 0
M  V30 16 Fe -1.2777 3.2724 -1.8406 0
M  V30 17 Pb -2.1666 -1.2509 3.6336 0
M  V30 18 Ba -2.8753 -1.6601 2.3766 0
M  V30 19 Pb -3.6497 -2.1072 1.1722 0
M  V30 20 Pb 2.0647 -1.2509 3.6614 0
M  V30 21 Ba 2.7900 -1.6601 2.4138 0
M  V30 22 Pb 3.5801 -2.1073 1.2197 0
M  V30 23 Pb -0.0510 2.4136 3.6614 0
M  V30 24 Ba -0.0427 3.2463 2.4138 0
M  V30 25 Pb -0.0349 4.1541 1.2197 0
M  V30 26 Pb -1.5114 -3.3156 -2.2733 0
M  V30 27 Ba -0.0123 -3.2780 -2.2367 0
M  V30 28 Pb 1.4871 -3.3156 -2.2536 0
M  V30 29 Pb -3.6271 0.3489 -2.2733 0
M  V30 30 Ba -2.8450 1.6284 -2.2367 0
M  V30 31 Pb -2.1278 2.9457 -2.2536 0
M  V30 32 Pb 3.6027 0.3488 -2.2258 0
M  V30 33 Ba 2.8203 1.6283 -2.1995 0
M  V30 34 Pb 2.1035 2.9457 -2.2258 0
M  V30 END ATOM
M  V30 BEGIN BOND
M  V30 1 1 1 2
M  V30 2 1 1 3
M  V30 3 1 1 4
M  V30 4 1 5 6
M  V30 5 1 5 7
M  V30 6 1 5 8
M  V30 7 1 9 10
M  V30 8 1 9 11
M  V30 9 1 9 12
M  V30 10 1 13 14
M  V30 11 1 13 15
M  V30 12 1 13 16
M  V30 13 1 17 18
M  V30 14 1 18 19
M  V30 15 1 20 21
M  V30 16 1 21 22
M  V30 17 1 23 24
M  V30 18 1 24 25
M  V30 19 1 26 27
M  V30 20 1 27 28
M  V30 21 1 29 30
M  V30 22 1 30 31
M  V30 23 1 32 33
M  V30 24 1 33 34
M  V30 25 1 2 17
M  V30 26 1 6 19
M  V30 27 1 3 20
M  V30 28 1 10 22
M  V30 29 1 4 23
M  V30 30 1 14 25
M  V30 31 1 8 26
M  V30 32 1 11 28
M  V30 33 1 7 29
M  V30 34 1 16 31
M  V30 35 1 12 32
M  V30 36 1 15 34
M  V30 END BOND
M  V30 END CTAB
M  END

$$$$
