
     RDKit          3D

  0  0  0  0  0  0  0  0  0  0999 V3000
M  V30 BEGIN CTAB
M  V30 COUNTS 17 18 0 0 0
M  V30 BEGIN ATOM
M  V30 1 Ag -0.1427 -1.2218 3.3694 0
M  V30 2 Fe -0.9837 -1.6901 2.2190 0
M  V30 3 Fe 0.6834 -1.7160 2.2190 0
M  V30 4 Fe -0.1277 -0.2593 2.2190 0
M  V30 5 Ag -0.1427 -1.2218 -3.3694 0
M  V30 6 Fe -0.9837 -1.6901 -2.2190 0
M  V30 7 Fe -0.1277 -0.2593 -2.2190 0
M  V30 8 Fe 0.6834 -1.7160 -2.2190 0
M  V30 9 Pb -1.5901 -2.0277 1.4991 0
M  V30 10 Ba -1.5440 -2.0020 0.0000 0
M  V30 11 Pb -1.5901 -2.0277 -1.4991 0
M  V30 12 Pb 1.2790 -2.0724 1.4991 0
M  V30 13 Ba 1.2337 -2.0453 -0.0000 0
M  V30 14 Pb 1.2790 -2.0724 -1.4991 0
M  V30 15 Pb -0.1168 0.4347 1.4991 0
M  V30 16 Ba -0.1177 0.3819 0.0000 0
M  V30 17 Pb -0.1168 0.4347 -1.4991 0
M  V30 END ATOM
M  V30 BEGIN BOND
M  V30 1 1 1 2
M  V30 2 1 1 3
M  V30 3 1 1 4
M  V30 4 1 5 6
M  V30 5 1 5 7
M  V30 6 1 5 8
M  V30 7 1 9 10
M  V30 8 1 10 11
M  V30 9 1 12 13
M  V30 10 1 13 14
M  V30 11 1 15 16
M  V30 12 1 16 17
M  V30 13 1 2 9
M  V30 14 1 3 12
M  V30 15 1 4 15
M  V30 16 1 6 11
M  V30 17 1 8 14
M  V30 18 1 7 17
M  V30 END BOND
M  V30 END CTAB
M  END

$$$$
