
     RDKit          3D

  0  0  0  0  0  0  0  0  0  0999 V3000
M  V30 BEGIN CTAB
M  V30 COUNTS 51 54 0 0 0
M  V30 BEGIN ATOM
M  V30 1 Ag -3.2411 0.0027 -2.6356 0
M  V30 2 Fe -3.3298 0.1040 -1.1410 0
M  V30 3 Fe -2.4867 0.9061 -1.7058 0
M  V30 4 Fe -2.2218 -0.3352 -1.5883 0
M  V30 5 Ag -2.1986 -4.1201 2.2739 0
M  V30 6 Fe -2.6537 -2.6925 2.1971 0
M  V30 7 Fe -1.6458 -2.9318 1.5446 0
M  V30 8 Fe -1.5305 -2.8786 2.7859 0
M  V30 9 Ag 2.2610 -3.3423 -2.7333 0
M  V30 10 Fe 1.5242 -2.6156 -1.6478 0
M  V30 11 Fe 1.2671 -2.2205 -2.8034 0
M  V30 12 Fe 2.4062 -1.9271 -2.2575 0
M  V30 13 Ag 3.0703 -0.5947 3.0857 0
M  V30 14 Fe 2.9912 -0.0620 1.6856 0
M  V30 15 Fe 2.4480 0.6723 2.5767 0
M  V30 16 Fe 1.9167 -0.4714 2.1358 0
M  V30 17 Ag 2.5925 3.1668 -2.7176 0
M  V30 18 Fe 1.4211 3.0277 -1.7897 0
M  V30 19 Fe 2.2071 2.0529 -1.7904 0
M  V30 20 Fe 1.4617 2.1840 -2.7816 0
M  V30 21 Ag -2.7994 1.8763 0.5465 0
M  V30 22 Fe -1.9113 1.2686 1.5901 0
M  V30 23 Fe -1.4207 2.3156 0.9427 0
M  V30 24 Fe -1.4794 1.1758 0.4139 0
M  V30 25 Pb -3.3998 0.1653 -0.1446 0
M  V30 26 Ba -3.1735 -0.7840 0.9954 0
M  V30 27 Pb -2.9455 -1.7380 2.1311 0
M  V30 28 Pb -1.5386 -0.5664 -0.8957 0
M  V30 29 Ba -0.2565 -1.3446 -0.9054 0
M  V30 30 Pb 1.0232 -2.1263 -0.9342 0
M  V30 31 Pb 2.5180 -0.9864 -1.9365 0
M  V30 32 Ba 2.7210 -0.3461 -0.5952 0
M  V30 33 Pb 2.9236 0.2856 0.7503 0
M  V30 34 Pb -1.2839 -2.1228 1.0816 0
M  V30 35 Ba -0.0698 -1.2646 1.2760 0
M  V30 36 Pb 1.1526 -0.4238 1.4933 0
M  V30 37 Pb -1.9852 1.5141 -1.0903 0
M  V30 38 Ba -0.6645 2.2253 -1.1327 0
M  V30 39 Pb 0.6522 2.9448 -1.1544 0
M  V30 40 Pb 0.5952 -1.4804 -2.8459 0
M  V30 41 Ba 0.6552 0.0184 -2.8377 0
M  V30 42 Pb 0.7189 1.5169 -2.8292 0
M  V30 43 Pb -1.0873 -2.0426 3.1091 0
M  V30 44 Ba -1.1963 -0.6003 2.7147 0
M  V30 45 Pb -1.3423 0.8279 2.2831 0
M  V30 46 Pb 2.0693 1.5434 2.2620 0
M  V30 47 Ba 0.7678 2.0607 1.7234 0
M  V30 48 Pb -0.5052 2.6408 1.1808 0
M  V30 49 Pb 1.9303 1.3147 -1.1758 0
M  V30 50 Ba 0.6720 1.0068 -0.4200 0
M  V30 51 Pb -0.5952 0.7164 0.3280 0
M  V30 END ATOM
M  V30 BEGIN BOND
M  V30 1 1 1 2
M  V30 2 1 1 3
M  V30 3 1 1 4
M  V30 4 1 5 6
M  V30 5 1 5 7
M  V30 6 1 5 8
M  V30 7 1 9 10
M  V30 8 1 9 11
M  V30 9 1 9 12
M  V30 10 1 13 14
M  V30 11 1 13 15
M  V30 12 1 13 16
M  V30 13 1 17 18
M  V30 14 1 17 19
M  V30 15 1 17 20
M  V30 16 1 21 22
M  V30 17 1 21 23
M  V30 18 1 21 24
M  V30 19 1 25 26
M  V30 20 1 26 27
M  V30 21 1 28 29
M  V30 22 1 29 30
M  V30 23 1 31 32
M  V30 24 1 32 33
M  V30 25 1 34 35
M  V30 26 1 35 36
M  V30 27 1 37 38
M  V30 28 1 38 39
M  V30 29 1 40 41
M  V30 30 1 41 42
M  V30 31 1 43 44
M  V30 32 1 44 45
M  V30 33 1 46 47
M  V30 34 1 47 48
M  V30 35 1 49 50
M  V30 36 1 50 51
M  V30 37 1 2 25
M  V30 38 1 6 27
M  V30 39 1 4 28
M  V30 40 1 10 30
M  V30 41 1 12 31
M  V30 42 1 14 33
M  V30 43 1 7 34
M  V30 44 1 16 36
M  V30 45 1 3 37
M  V30 46 1 18 39
M  V30 47 1 11 40
M  V30 48 1 20 42
M  V30 49 1 8 43
M  V30 50 1 22 45
M  V30 51 1 15 46
M  V30 52 1 23 48
M  V30 53 1 19 49
M  V30 54 1 24 51
M  V30 END BOND
M  V30 END CTAB
M  END

$$$$
