
     RDKit          3D

  0  0  0  0  0  0  0  0  0  0999 V3000
M  V30 BEGIN CTAB
M  V30 COUNTS 34 36 0 0 0
M  V30 BEGIN ATOM
M  V30 1 Ag 3.4938 -0.3542 3.6664 0
M  V30 2 Fe 2.3174 -1.1805 3.2382 0
M  V30 3 Fe 3.1622 0.3182 2.3672 0
M  V30 4 Fe 2.3170 0.4720 4.0936 0
M  V30 5 Ag -3.4964 -0.3544 3.6638 0
M  V30 6 Fe -2.3196 -1.1806 3.2365 0
M  V30 7 Fe -2.3200 0.4718 4.0919 0
M  V30 8 Fe -3.1639 0.3181 2.3649 0
M  V30 9 Ag 3.4964 -0.3544 -3.6638 0
M  V30 10 Fe 2.3197 -1.1806 -3.2365 0
M  V30 11 Fe 2.3200 0.4718 -4.0919 0
M  V30 12 Fe 3.1639 0.3181 -2.3649 0
M  V30 13 Ag -3.4938 -0.3544 -3.6664 0
M  V30 14 Fe -2.3173 -1.1806 -3.2382 0
M  V30 15 Fe -3.1622 0.3181 -2.3672 0
M  V30 16 Fe -2.3170 0.4718 -4.0937 0
M  V30 17 Pb 1.4983 -1.6899 2.9742 0
M  V30 18 Ba -0.0010 -1.7287 2.9536 0
M  V30 19 Pb -1.5004 -1.6900 2.9731 0
M  V30 20 Pb 1.4978 0.9813 4.3570 0
M  V30 21 Ba -0.0016 1.0200 4.3765 0
M  V30 22 Pb -1.5010 0.9812 4.3559 0
M  V30 23 Pb 1.5004 -1.6900 -2.9731 0
M  V30 24 Ba 0.0011 -1.7287 -2.9536 0
M  V30 25 Pb -1.4983 -1.6900 -2.9742 0
M  V30 26 Pb 1.5009 0.9812 -4.3559 0
M  V30 27 Ba 0.0016 1.0199 -4.3766 0
M  V30 28 Pb -1.4978 0.9812 -4.3571 0
M  V30 29 Pb 2.9412 0.7665 1.5011 0
M  V30 30 Ba 2.9417 0.7665 0.0011 0
M  V30 31 Pb 2.9422 0.7665 -1.4989 0
M  V30 32 Pb -2.9423 0.7664 1.4989 0
M  V30 33 Ba -2.9417 0.7664 -0.0011 0
M  V30 34 Pb -2.9412 0.7664 -1.5011 0
M  V30 END ATOM
M  V30 BEGIN BOND
M  V30 1 1 1 2
M  V30 2 1 1 3
M  V30 3 1 1 4
M  V30 4 1 5 6
M  V30 5 1 5 7
M  V30 6 1 5 8
M  V30 7 1 9 10
M  V30 8 1 9 11
M  V30 9 1 9 12
M  V30 10 1 13 14
M  V30 11 1 13 15
M  V30 12 1 13 16
M  V30 13 1 17 18
M  V30 14 1 18 19
M  V30 15 1 20 21
M  V30 16 1 21 22
M  V30 17 1 23 24
M  V30 18 1 24 25
M  V30 19 1 26 27
M  V30 20 1 27 28
M  V30 21 1 29 30
M  V30 22 1 30 31
M  V30 23 1 32 33
M  V30 24 1 33 34
M  V30 25 1 2 17
M  V30 26 1 6 19
M  V30 27 1 4 20
M  V30 28 1 7 22
M  V30 29 1 10 23
M  V30 30 1 14 25
M  V30 31 1 11 26
M  V30 32 1 16 28
M  V30 33 1 3 29
M  V30 34 1 12 31
M  V30 35 1 8 32
M  V30 36 1 15 34
M  V30 END BOND
M  V30 END CTAB
M  END

$$$$
