
     RDKit          3D

  0  0  0  0  0  0  0  0  0  0999 V3000
M  V30 BEGIN CTAB
M  V30 COUNTS 68 72 0 0 0
M  V30 BEGIN ATOM
M  V30 1 Ag -4.0292 4.0518 -4.0008 0
M  V30 2 Fe -2.5291 4.0506 -4.0018 0
M  V30 3 Fe -4.0321 2.5524 -4.0025 0
M  V30 4 Fe -4.0278 4.0545 -2.5007 0
M  V30 5 Ag -4.0509 -3.9489 -4.0010 0
M  V30 6 Fe -4.0448 -2.4487 -4.0040 0
M  V30 7 Fe -2.5508 -3.9540 -4.0022 0
M  V30 8 Fe -4.0533 -3.9482 -2.5007 0
M  V30 9 Ag 3.9710 4.0305 -4.0008 0
M  V30 10 Fe 2.4709 4.0394 -4.0049 0
M  V30 11 Fe 3.9668 4.0308 -2.5011 0
M  V30 12 Fe 3.9650 2.5303 -4.0019 0
M  V30 13 Ag 3.9479 -3.9713 -4.0016 0
M  V30 14 Fe 2.4482 -3.9700 -4.0080 0
M  V30 15 Fe 3.9518 -2.4706 -4.0037 0
M  V30 16 Fe 3.9455 -3.9749 -2.5011 0
M  V30 17 Ag -4.0293 4.0521 4.0007 0
M  V30 18 Fe -2.5293 4.0506 4.0018 0
M  V30 19 Fe -4.0279 4.0545 2.5006 0
M  V30 20 Fe -4.0318 2.5525 4.0023 0
M  V30 21 Ag -4.0515 -3.9486 4.0007 0
M  V30 22 Fe -4.0451 -2.4484 4.0042 0
M  V30 23 Fe -4.0539 -3.9485 2.5006 0
M  V30 24 Fe -2.5512 -3.9540 4.0019 0
M  V30 25 Ag 3.9704 4.0304 4.0010 0
M  V30 26 Fe 2.4703 4.0392 4.0050 0
M  V30 27 Fe 3.9650 2.5303 4.0016 0
M  V30 28 Fe 3.9665 4.0302 2.5012 0
M  V30 29 Ag 3.9481 -3.9710 4.0017 0
M  V30 30 Fe 2.4482 -3.9695 4.0075 0
M  V30 31 Fe 3.9451 -3.9750 2.5012 0
M  V30 32 Fe 3.9518 -2.4703 4.0038 0
M  V30 33 Pb -1.5289 4.0501 -4.0030 0
M  V30 34 Ba -0.0289 4.0494 -4.0040 0
M  V30 35 Pb 1.4709 4.0450 -4.0052 0
M  V30 36 Pb -4.0342 1.5520 -4.0034 0
M  V30 37 Ba -4.0377 0.0518 -4.0037 0
M  V30 38 Pb -4.0418 -1.4482 -4.0044 0
M  V30 39 Pb -1.5514 -3.9575 -4.0041 0
M  V30 40 Ba -0.0520 -3.9625 -4.0078 0
M  V30 41 Pb 1.4480 -3.9679 -4.0098 0
M  V30 42 Pb 3.9623 1.5303 -4.0033 0
M  V30 43 Ba 3.9583 0.0298 -4.0045 0
M  V30 44 Pb 3.9544 -1.4706 -4.0049 0
M  V30 45 Pb -1.5292 4.0498 4.0030 0
M  V30 46 Ba -0.0294 4.0487 4.0042 0
M  V30 47 Pb 1.4704 4.0445 4.0055 0
M  V30 48 Pb -4.0335 1.5522 4.0034 0
M  V30 49 Ba -4.0364 0.0520 4.0039 0
M  V30 50 Pb -4.0412 -1.4479 4.0047 0
M  V30 51 Pb -1.5515 -3.9574 4.0041 0
M  V30 52 Ba -0.0519 -3.9621 4.0082 0
M  V30 53 Pb 1.4480 -3.9674 4.0096 0
M  V30 54 Pb 3.9626 1.5302 4.0027 0
M  V30 55 Ba 3.9593 0.0298 4.0044 0
M  V30 56 Pb 3.9550 -1.4704 4.0050 0
M  V30 57 Pb -4.0273 4.0575 -1.5004 0
M  V30 58 Ba -4.0274 4.0597 0.0000 0
M  V30 59 Pb -4.0274 4.0573 1.5004 0
M  V30 60 Pb -4.0564 -3.9478 -1.5005 0
M  V30 61 Ba -4.0594 -3.9474 -0.0001 0
M  V30 62 Pb -4.0568 -3.9479 1.5002 0
M  V30 63 Pb 3.9644 4.0304 -1.5002 0
M  V30 64 Ba 3.9625 4.0297 0.0001 0
M  V30 65 Pb 3.9643 4.0301 1.5004 0
M  V30 66 Pb 3.9445 -3.9780 -1.5006 0
M  V30 67 Ba 3.9440 -3.9807 0.0001 0
M  V30 68 Pb 3.9442 -3.9784 1.5007 0
M  V30 END ATOM
M  V30 BEGIN BOND
M  V30 1 1 1 2
M  V30 2 1 1 3
M  V30 3 1 1 4
M  V30 4 1 5 6
M  V30 5 1 5 7
M  V30 6 1 5 8
M  V30 7 1 9 10
M  V30 8 1 9 11
M  V30 9 1 9 12
M  V30 10 1 13 14
M  V30 11 1 13 15
M  V30 12 1 13 16
M  V30 13 1 17 18
M  V30 14 1 17 19
M  V30 15 1 17 20
M  V30 16 1 21 22
M  V30 17 1 21 23
M  V30 18 1 21 24
M  V30 19 1 25 26
M  V30 20 1 25 27
M  V30 21 1 25 28
M  V30 22 1 29 30
M  V30 23 1 29 31
M  V30 24 1 29 32
M  V30 25 1 33 34
M  V30 26 1 34 35
M  V30 27 1 36 37
M  V30 28 1 37 38
M  V30 29 1 39 40
M  V30 30 1 40 41
M  V30 31 1 42 43
M  V30 32 1 43 44
M  V30 33 1 45 46
M  V30 34 1 46 47
M  V30 35 1 48 49
M  V30 36 1 49 50
M  V30 37 1 51 52
M  V30 38 1 52 53
M  V30 39 1 54 55
M  V30 40 1 55 56
M  V30 41 1 57 58
M  V30 42 1 58 59
M  V30 43 1 60 61
M  V30 44 1 61 62
M  V30 45 1 63 64
M  V30 46 1 64 65
M  V30 47 1 66 67
M  V30 48 1 67 68
M  V30 49 1 2 33
M  V30 50 1 10 35
M  V30 51 1 3 36
M  V30 52 1 6 38
M  V30 53 1 7 39
M  V30 54 1 14 41
M  V30 55 1 12 42
M  V30 56 1 15 44
M  V30 57 1 18 45
M  V30 58 1 26 47
M  V30 59 1 20 48
M  V30 60 1 22 50
M  V30 61 1 24 51
M  V30 62 1 30 53
M  V30 63 1 27 54
M  V30 64 1 32 56
M  V30 65 1 4 57
M  V30 66 1 19 59
M  V30 67 1 8 60
M  V30 68 1 23 62
M  V30 69 1 11 63
M  V30 70 1 28 65
M  V30 71 1 16 66
M  V30 72 1 31 68
M  V30 END BOND
M  V30 END CTAB
M  END

$$$$
