
     RDKit          3D

  0  0  0  0  0  0  0  0  0  0999 V3000
M  V30 BEGIN CTAB
M  V30 COUNTS 66 68 0 0 0
M  V30 BEGIN ATOM
M  V30 1 C -0.4054 -0.0410 -0.5891 0
M  V30 2 C -0.2494 0.1253 -0.4706 0
M  V30 3 C 0.0088 0.1186 -0.4968 0
M  V30 4 O 0.2306 0.0808 -0.3944 0
M  V30 5 C 0.4533 0.0357 -0.2840 0
M  V30 6 C 0.6313 0.2161 -0.2509 0
M  V30 7 C 0.7470 0.3547 -0.0806 0
M  V30 8 H -0.3596 -0.1109 -0.7987 0
M  V30 9 H -0.5046 0.0651 -0.7735 0
M  V30 10 H -0.2706 0.2711 -0.6359 0
M  V30 11 H 0.0572 0.2816 -0.6526 0
M  V30 12 H 0.0692 0.0576 -0.7064 0
M  V30 13 H 0.5459 -0.0322 -0.4744 0
M  V30 14 H 0.8102 0.1687 -0.3956 0
M  V30 15 H 0.6836 0.3511 -0.4225 0
M  V30 16 H 0.7982 0.5636 -0.1658 0
M  V30 17 H 0.9673 0.3640 -0.1523 0
M  V30 18 C 0.4054 0.0410 0.5891 0
M  V30 19 C 0.2494 -0.1254 0.4706 0
M  V30 20 C -0.0088 -0.1186 0.4968 0
M  V30 21 O -0.2306 -0.0808 0.3944 0
M  V30 22 C -0.4532 -0.0357 0.2840 0
M  V30 23 C -0.6313 -0.2161 0.2509 0
M  V30 24 C -0.7470 -0.3546 0.0806 0
M  V30 25 H 0.5046 -0.0651 0.7736 0
M  V30 26 H 0.3596 0.1109 0.7987 0
M  V30 27 H 0.2706 -0.2711 0.6358 0
M  V30 28 H -0.0692 -0.0576 0.7064 0
M  V30 29 H -0.0572 -0.2816 0.6526 0
M  V30 30 H -0.5459 0.0322 0.4744 0
M  V30 31 H -0.8101 -0.1688 0.3957 0
M  V30 32 H -0.6835 -0.3512 0.4225 0
M  V30 33 H -0.7983 -0.5636 0.1658 0
M  V30 34 H -0.9674 -0.3639 0.1524 0
M  V30 35 C 0.4988 -0.1818 -0.1534 0
M  V30 36 N 0.4611 -0.2788 0.0736 0
M  V30 37 C 0.3742 -0.2804 0.3070 0
M  V30 38 H 0.5482 -0.3697 -0.2819 0
M  V30 39 H 0.6909 -0.2903 -0.2203 0
M  V30 40 H 0.5824 -0.4831 0.0618 0
M  V30 41 H 0.5237 -0.4239 0.4098 0
M  V30 42 H 0.3777 -0.5088 0.3560 0
M  V30 43 C 0.5748 0.2184 0.5556 0
M  V30 44 N 0.6886 0.3485 0.3849 0
M  V30 45 C 0.7721 0.3967 0.1612 0
M  V30 46 H 0.5677 0.3744 0.7262 0
M  V30 47 H 0.7473 0.1800 0.7073 0
M  V30 48 H 0.7810 0.5177 0.5059 0
M  V30 49 H 0.8250 0.6205 0.1800 0
M  V30 50 H 1.0000 0.4016 0.1978 0
M  V30 51 C -0.4988 0.1818 0.1534 0
M  V30 52 N -0.4611 0.2788 -0.0736 0
M  V30 53 C -0.3742 0.2804 -0.3070 0
M  V30 54 H -0.6909 0.2903 0.2203 0
M  V30 55 H -0.5482 0.3697 0.2819 0
M  V30 56 H -0.5823 0.4831 -0.0618 0
M  V30 57 H -0.3776 0.5088 -0.3561 0
M  V30 58 H -0.5236 0.4239 -0.4098 0
M  V30 59 C -0.5748 -0.2184 -0.5556 0
M  V30 60 N -0.6887 -0.3485 -0.3849 0
M  V30 61 C -0.7721 -0.3967 -0.1612 0
M  V30 62 H -0.5678 -0.3744 -0.7262 0
M  V30 63 H -0.7473 -0.1800 -0.7073 0
M  V30 64 H -0.7811 -0.5177 -0.5058 0
M  V30 65 H -1.0000 -0.4016 -0.1978 0
M  V30 66 H -0.8251 -0.6205 -0.1800 0
M  V30 END ATOM
M  V30 BEGIN BOND
M  V30 1 1 1 2
M  V30 2 1 2 3
M  V30 3 1 3 4
M  V30 4 1 4 5
M  V30 5 1 5 6
M  V30 6 1 6 7
M  V30 7 1 1 8
M  V30 8 1 1 9
M  V30 9 1 2 10
M  V30 10 1 3 11
M  V30 11 1 3 12
M  V30 12 1 5 13
M  V30 13 1 6 14
M  V30 14 1 6 15
M  V30 15 1 7 16
M  V30 16 1 7 17
M  V30 17 1 18 19
M  V30 18 1 19 20
M  V30 19 1 20 21
M  V30 20 1 21 22
M  V30 21 1 22 23
M  V30 22 1 23 24
M  V30 23 1 18 25
M  V30 24 1 18 26
M  V30 25 1 19 27
M  V30 26 1 20 28
M  V30 27 1 20 29
M  V30 28 1 22 30
M  V30 29 1 23 31
M  V30 30 1 23 32
M  V30 31 1 24 33
M  V30 32 1 24 34
M  V30 33 1 35 36
M  V30 34 1 36 37
M  V30 35 1 35 38
M  V30 36 1 35 39
M  V30 37 1 36 40
M  V30 38 1 37 41
M  V30 39 1 37 42
M  V30 40 1 43 44
M  V30 41 1 44 45
M  V30 42 1 43 46
M  V30 43 1 43 47
M  V30 44 1 44 48
M  V30 45 1 45 49
M  V30 46 1 45 50
M  V30 47 1 51 52
M  V30 48 1 52 53
M  V30 49 1 51 54
M  V30 50 1 51 55
M  V30 51 1 52 56
M  V30 52 1 53 57
M  V30 53 1 53 58
M  V30 54 1 59 60
M  V30 55 1 60 61
M  V30 56 1 59 62
M  V30 57 1 59 63
M  V30 58 1 60 64
M  V30 59 1 61 65
M  V30 60 1 61 66
M  V30 61 1 1 59
M  V30 62 1 7 45
M  V30 63 1 5 35
M  V30 64 1 2 53
M  V30 65 1 18 43
M  V30 66 1 24 61
M  V30 67 1 22 51
M  V30 68 1 19 37
M  V30 END BOND
M  V30 END CTAB
M  END

$$$$
