
     RDKit          3D

  0  0  0  0  0  0  0  0  0  0999 V3000
M  V30 BEGIN CTAB
M  V30 COUNTS 38 38 0 0 0
M  V30 BEGIN ATOM
M  V30 1 C -0.5290 -0.6746 0.4306 0
M  V30 2 B -0.5841 -0.3987 0.5270 0
M  V30 3 C -0.5572 -0.0942 0.5016 0
M  V30 4 H -0.5833 -0.8255 0.5209 0
M  V30 5 H -0.6837 -0.4384 0.6776 0
M  V30 6 H -0.7203 -0.0231 0.5548 0
M  V30 7 H -0.6220 -0.0456 0.6716 0
M  V30 8 C 0.3387 0.4807 -0.2707 0
M  V30 9 B 0.4169 0.3620 -0.5421 0
M  V30 10 C 0.6082 0.2730 -0.7289 0
M  V30 11 H 0.2678 0.6306 -0.2670 0
M  V30 12 H 0.3133 0.3596 -0.6867 0
M  V30 13 H 0.6098 0.1332 -0.8597 0
M  V30 14 H 0.6446 0.2718 -0.9229 0
M  V30 15 C 0.5578 0.6133 -0.3827 0
M  V30 16 N 0.7448 0.4665 -0.4502 0
M  V30 17 C 0.8256 0.3453 -0.6464 0
M  V30 18 H 0.6492 0.7888 -0.3756 0
M  V30 19 H 0.4947 0.7467 -0.4819 0
M  V30 20 H 0.7969 0.4056 -0.2851 0
M  V30 21 H 0.9746 0.3436 -0.7754 0
M  V30 22 H 1.0000 0.3118 -0.6250 0
M  V30 23 C -0.3824 0.1166 0.3245 0
M  V30 24 N -0.1127 0.2841 0.2158 0
M  V30 25 C 0.1468 0.4142 0.0308 0
M  V30 26 H -0.4905 0.1973 0.2185 0
M  V30 27 H -0.4907 0.0701 0.2352 0
M  V30 28 H -0.0972 0.3441 0.3674 0
M  V30 29 H 0.1631 0.5372 0.1540 0
M  V30 30 H 0.2586 0.4182 0.1591 0
M  V30 31 C -0.2292 -0.7739 0.4471 0
M  V30 32 H -0.0763 -0.7838 0.5507 0
M  V30 33 H -0.0713 -0.8425 0.3857 0
M  V30 34 H -0.1347 -0.9270 0.4727 0
M  V30 35 C -0.7661 -0.7316 0.2628 0
M  V30 36 H -0.8511 -0.8299 0.1319 0
M  V30 37 H -0.9157 -0.6781 0.1731 0
M  V30 38 H -0.9140 -0.8474 0.2867 0
M  V30 END ATOM
M  V30 BEGIN BOND
M  V30 1 1 1 2
M  V30 2 1 2 3
M  V30 3 1 1 4
M  V30 4 1 2 5
M  V30 5 1 3 6
M  V30 6 1 3 7
M  V30 7 1 8 9
M  V30 8 1 9 10
M  V30 9 1 8 11
M  V30 10 1 9 12
M  V30 11 1 10 13
M  V30 12 1 10 14
M  V30 13 1 15 16
M  V30 14 1 16 17
M  V30 15 1 15 18
M  V30 16 1 15 19
M  V30 17 1 16 20
M  V30 18 1 17 21
M  V30 19 1 17 22
M  V30 20 1 23 24
M  V30 21 1 24 25
M  V30 22 1 23 26
M  V30 23 1 23 27
M  V30 24 1 24 28
M  V30 25 1 25 29
M  V30 26 1 25 30
M  V30 27 1 31 32
M  V30 28 1 31 33
M  V30 29 1 31 34
M  V30 30 1 35 36
M  V30 31 1 35 37
M  V30 32 1 35 38
M  V30 33 1 1 35
M  V30 34 1 1 31
M  V30 35 1 3 23
M  V30 36 1 8 25
M  V30 37 1 8 15
M  V30 38 1 10 17
M  V30 END BOND
M  V30 END CTAB
M  END

$$$$
