
     RDKit          3D

  0  0  0  0  0  0  0  0  0  0999 V3000
M  V30 BEGIN CTAB
M  V30 COUNTS 38 38 0 0 0
M  V30 BEGIN ATOM
M  V30 1 C 0.1691 -0.6321 0.3547 0
M  V30 2 B 0.2179 -0.4390 0.2600 0
M  V30 3 C 0.2044 -0.2853 0.1067 0
M  V30 4 H -0.0249 -0.6905 0.3464 0
M  V30 5 H 0.4086 -0.3972 0.3439 0
M  V30 6 H 0.4096 -0.2757 0.0412 0
M  V30 7 H 0.2176 -0.3914 -0.0677 0
M  V30 8 C -0.1591 0.3303 -0.2782 0
M  V30 9 B -0.3286 0.4598 -0.2094 0
M  V30 10 C -0.3554 0.6748 -0.1866 0
M  V30 11 H -0.2650 0.2531 -0.4487 0
M  V30 12 H -0.5333 0.4080 -0.2308 0
M  V30 13 H -0.3994 0.7694 -0.0075 0
M  V30 14 H -0.5540 0.7302 -0.1987 0
M  V30 15 C -0.0351 0.4759 -0.3976 0
M  V30 16 N -0.0619 0.6898 -0.3631 0
M  V30 17 C -0.2352 0.8088 -0.3132 0
M  V30 18 H -0.0267 0.4557 -0.6128 0
M  V30 19 H 0.1541 0.4955 -0.4686 0
M  V30 20 H 0.0937 0.8185 -0.3964 0
M  V30 21 H -0.3200 0.9252 -0.4635 0
M  V30 22 H -0.1989 1.0000 -0.2496 0
M  V30 23 C 0.1286 -0.0780 0.0913 0
M  V30 24 N -0.0278 0.0285 -0.0176 0
M  V30 25 C -0.1073 0.1315 -0.1930 0
M  V30 26 H 0.1349 0.0202 0.2759 0
M  V30 27 H 0.3098 0.0277 0.1076 0
M  V30 28 H -0.1869 0.0246 0.1169 0
M  V30 29 H -0.2772 0.0117 -0.2426 0
M  V30 30 H -0.0549 0.0252 -0.3652 0
M  V30 31 C 0.1664 -0.6484 0.5787 0
M  V30 32 H 0.3249 -0.7004 0.7011 0
M  V30 33 H 0.1400 -0.5740 0.7634 0
M  V30 34 H 0.0236 -0.7554 0.6846 0
M  V30 35 C 0.2359 -0.8274 0.2656 0
M  V30 36 H 0.1163 -0.9972 0.2598 0
M  V30 37 H 0.2818 -0.9476 0.1109 0
M  V30 38 H 0.4143 -0.9252 0.3019 0
M  V30 END ATOM
M  V30 BEGIN BOND
M  V30 1 1 1 2
M  V30 2 1 2 3
M  V30 3 1 1 4
M  V30 4 1 2 5
M  V30 5 1 3 6
M  V30 6 1 3 7
M  V30 7 1 8 9
M  V30 8 1 9 10
M  V30 9 1 8 11
M  V30 10 1 9 12
M  V30 11 1 10 13
M  V30 12 1 10 14
M  V30 13 1 15 16
M  V30 14 1 16 17
M  V30 15 1 15 18
M  V30 16 1 15 19
M  V30 17 1 16 20
M  V30 18 1 17 21
M  V30 19 1 17 22
M  V30 20 1 23 24
M  V30 21 1 24 25
M  V30 22 1 23 26
M  V30 23 1 23 27
M  V30 24 1 24 28
M  V30 25 1 25 29
M  V30 26 1 25 30
M  V30 27 1 31 32
M  V30 28 1 31 33
M  V30 29 1 31 34
M  V30 30 1 35 36
M  V30 31 1 35 37
M  V30 32 1 35 38
M  V30 33 1 1 35
M  V30 34 1 1 31
M  V30 35 1 3 23
M  V30 36 1 8 25
M  V30 37 1 8 15
M  V30 38 1 10 17
M  V30 END BOND
M  V30 END CTAB
M  END

$$$$
