
     RDKit          3D

  0  0  0  0  0  0  0  0  0  0999 V3000
M  V30 BEGIN CTAB
M  V30 COUNTS 66 68 0 0 0
M  V30 BEGIN ATOM
M  V30 1 C 0.7026 3.3125 -0.7417 0
M  V30 2 C 1.1044 2.3497 -1.5449 0
M  V30 3 C 1.6633 1.4641 -1.5191 0
M  V30 4 O 1.5236 0.3740 -1.0581 0
M  V30 5 C 1.2790 -0.7180 -0.5152 0
M  V30 6 C 0.3204 -1.7872 -0.3559 0
M  V30 7 C -0.5501 -2.7352 0.1250 0
M  V30 8 H 1.1055 3.7811 -0.6597 0
M  V30 9 H 0.8259 3.8966 -0.9560 0
M  V30 10 H 1.3642 2.8373 -1.8732 0
M  V30 11 H 2.2509 1.6154 -1.7780 0
M  V30 12 H 1.9723 1.8060 -1.9695 0
M  V30 13 H 1.6459 -0.9065 -0.9107 0
M  V30 14 H 0.0385 -2.0134 -0.7694 0
M  V30 15 H 0.4895 -2.1724 -0.7577 0
M  V30 16 H -1.1660 -2.7987 0.1824 0
M  V30 17 H -0.9320 -3.0111 0.4116 0
M  V30 18 C 0.8386 -3.0939 1.0965 0
M  V30 19 C 0.7789 -1.8481 1.3728 0
M  V30 20 C -0.2274 -0.9736 1.1466 0
M  V30 21 O -0.9988 -0.1310 0.4155 0
M  V30 22 C -1.6654 0.7153 -0.3608 0
M  V30 23 C -2.5423 1.5322 0.1251 0
M  V30 24 C -2.7353 2.4829 0.7035 0
M  V30 25 H 1.2659 -3.4313 0.8725 0
M  V30 26 H 1.2074 -3.4898 1.3344 0
M  V30 27 H 0.9013 -2.0785 1.9231 0
M  V30 28 H -0.2892 -0.8768 1.7288 0
M  V30 29 H -0.6295 -1.0411 1.5787 0
M  V30 30 H -2.2029 0.6278 -0.5272 0
M  V30 31 H -3.1397 1.3981 0.2576 0
M  V30 32 H -3.1263 1.6583 -0.0618 0
M  V30 33 H -3.2661 2.5083 1.0628 0
M  V30 34 H -3.3003 2.7880 0.7576 0
M  V30 35 C 2.1228 -0.5508 0.1542 0
M  V30 36 N 2.2505 -0.7549 1.0330 0
M  V30 37 C 1.7876 -1.3534 1.5692 0
M  V30 38 H 2.7500 -0.6149 0.0560 0
M  V30 39 H 2.6307 -0.1949 0.1728 0
M  V30 40 H 2.7486 -0.4267 1.3264 0
M  V30 41 H 2.0804 -1.4389 2.1580 0
M  V30 42 H 2.3517 -1.3986 1.8962 0
M  V30 43 C 0.4231 -4.0724 0.7642 0
M  V30 44 N -0.3616 -4.3624 0.6380 0
M  V30 45 C -0.9086 -3.7655 0.4607 0
M  V30 46 H 0.5899 -4.6824 0.8308 0
M  V30 47 H 0.5341 -4.5712 0.3905 0
M  V30 48 H -0.5481 -5.0000 0.6544 0
M  V30 49 H -1.3539 -4.2628 0.4015 0
M  V30 50 H -1.4063 -4.0928 0.7740 0
M  V30 51 C -1.1421 0.8386 -1.5416 0
M  V30 52 N -0.1688 1.1022 -2.1642 0
M  V30 53 C 0.8302 1.5590 -2.2514 0
M  V30 54 H -1.4284 0.6176 -2.0598 0
M  V30 55 H -1.5343 0.9936 -2.0038 0
M  V30 56 H -0.1564 0.9640 -2.7927 0
M  V30 57 H 1.3620 1.2462 -2.5888 0
M  V30 58 H 1.2579 1.4237 -2.8193 0
M  V30 59 C -0.0730 3.7472 0.1368 0
M  V30 60 N -1.0890 3.6551 0.7236 0
M  V30 61 C -2.1083 3.2797 0.9937 0
M  V30 62 H 0.1408 4.2049 0.4936 0
M  V30 63 H -0.0640 4.3755 0.1566 0
M  V30 64 H -1.1780 4.1746 1.0352 0
M  V30 65 H -2.4584 3.7868 1.1671 0
M  V30 66 H -2.3882 3.5330 1.4995 0
M  V30 END ATOM
M  V30 BEGIN BOND
M  V30 1 1 1 2
M  V30 2 1 2 3
M  V30 3 1 3 4
M  V30 4 1 4 5
M  V30 5 1 5 6
M  V30 6 1 6 7
M  V30 7 1 1 8
M  V30 8 1 1 9
M  V30 9 1 2 10
M  V30 10 1 3 11
M  V30 11 1 3 12
M  V30 12 1 5 13
M  V30 13 1 6 14
M  V30 14 1 6 15
M  V30 15 1 7 16
M  V30 16 1 7 17
M  V30 17 1 18 19
M  V30 18 1 19 20
M  V30 19 1 20 21
M  V30 20 1 21 22
M  V30 21 1 22 23
M  V30 22 1 23 24
M  V30 23 1 18 25
M  V30 24 1 18 26
M  V30 25 1 19 27
M  V30 26 1 20 28
M  V30 27 1 20 29
M  V30 28 1 22 30
M  V30 29 1 23 31
M  V30 30 1 23 32
M  V30 31 1 24 33
M  V30 32 1 24 34
M  V30 33 1 35 36
M  V30 34 1 36 37
M  V30 35 1 35 38
M  V30 36 1 35 39
M  V30 37 1 36 40
M  V30 38 1 37 41
M  V30 39 1 37 42
M  V30 40 1 43 44
M  V30 41 1 44 45
M  V30 42 1 43 46
M  V30 43 1 43 47
M  V30 44 1 44 48
M  V30 45 1 45 49
M  V30 46 1 45 50
M  V30 47 1 51 52
M  V30 48 1 52 53
M  V30 49 1 51 54
M  V30 50 1 51 55
M  V30 51 1 52 56
M  V30 52 1 53 57
M  V30 53 1 53 58
M  V30 54 1 59 60
M  V30 55 1 60 61
M  V30 56 1 59 62
M  V30 57 1 59 63
M  V30 58 1 60 64
M  V30 59 1 61 65
M  V30 60 1 61 66
M  V30 61 1 1 59
M  V30 62 1 7 45
M  V30 63 1 5 35
M  V30 64 1 2 53
M  V30 65 1 18 43
M  V30 66 1 24 61
M  V30 67 1 22 51
M  V30 68 1 19 37
M  V30 END BOND
M  V30 END CTAB
M  END

$$$$
