
     RDKit          3D

  0  0  0  0  0  0  0  0  0  0999 V3000
M  V30 BEGIN CTAB
M  V30 COUNTS 38 38 0 0 0
M  V30 BEGIN ATOM
M  V30 1 C 1.8450 2.1118 -0.2818 0
M  V30 2 B 2.2308 1.2891 -1.4150 0
M  V30 3 C 2.2494 0.1415 -2.2389 0
M  V30 4 H 2.0409 2.7879 -0.4383 0
M  V30 5 H 2.7382 1.6959 -1.8378 0
M  V30 6 H 2.1962 0.3595 -3.0220 0
M  V30 7 H 2.7643 0.2594 -2.8493 0
M  V30 8 C -2.8554 -0.3735 1.2432 0
M  V30 9 B -1.8333 -1.4802 1.2184 0
M  V30 10 C -0.6409 -2.3426 0.8559 0
M  V30 11 H -3.3057 -0.2476 1.7145 0
M  V30 12 H -2.1286 -1.8844 1.7553 0
M  V30 13 H -0.7852 -3.0306 1.1744 0
M  V30 14 H -0.4203 -2.6764 1.5330 0
M  V30 15 C 1.9677 -1.2411 -2.1115 0
M  V30 16 N 1.3270 -2.1782 -1.2171 0
M  V30 17 C 0.4762 -2.6477 -0.1151 0
M  V30 18 H 2.5366 -1.6279 -2.5253 0
M  V30 19 H 1.9910 -1.5394 -2.8547 0
M  V30 20 H 1.6309 -2.8156 -1.5184 0
M  V30 21 H 0.9304 -3.2168 0.1731 0
M  V30 22 H 0.4652 -3.4219 -0.2571 0
M  V30 23 C -2.2573 0.9043 0.8870 0
M  V30 24 N -1.0285 1.5606 0.4320 0
M  V30 25 C 0.4251 1.8277 0.1672 0
M  V30 26 H -2.8897 1.3232 0.7022 0
M  V30 27 H -2.6288 1.4867 1.2570 0
M  V30 28 H -1.3934 2.0563 0.0164 0
M  V30 29 H 0.6406 1.5051 0.7025 0
M  V30 30 H 0.2109 1.4176 -0.0246 0
M  V30 31 C 2.7912 2.8219 0.4680 0
M  V30 32 H 3.0036 3.3560 1.0418 0
M  V30 33 H 3.3826 3.3972 0.4674 0
M  V30 34 H 3.4190 2.8234 0.9806 0
M  V30 35 C -4.2489 -0.5362 1.4091 0
M  V30 36 H -4.9204 -0.9915 1.4368 0
M  V30 37 H -4.9268 -0.5020 1.9043 0
M  V30 38 H -5.0000 -0.3714 1.1668 0
M  V30 END ATOM
M  V30 BEGIN BOND
M  V30 1 1 1 2
M  V30 2 1 2 3
M  V30 3 1 1 4
M  V30 4 1 2 5
M  V30 5 1 3 6
M  V30 6 1 3 7
M  V30 7 1 8 9
M  V30 8 1 9 10
M  V30 9 1 8 11
M  V30 10 1 9 12
M  V30 11 1 10 13
M  V30 12 1 10 14
M  V30 13 1 15 16
M  V30 14 1 16 17
M  V30 15 1 15 18
M  V30 16 1 15 19
M  V30 17 1 16 20
M  V30 18 1 17 21
M  V30 19 1 17 22
M  V30 20 1 23 24
M  V30 21 1 24 25
M  V30 22 1 23 26
M  V30 23 1 23 27
M  V30 24 1 24 28
M  V30 25 1 25 29
M  V30 26 1 25 30
M  V30 27 1 31 32
M  V30 28 1 31 33
M  V30 29 1 31 34
M  V30 30 1 35 36
M  V30 31 1 35 37
M  V30 32 1 35 38
M  V30 33 1 1 25
M  V30 34 1 3 15
M  V30 35 1 1 31
M  V30 36 1 8 35
M  V30 37 1 8 23
M  V30 38 1 10 17
M  V30 END BOND
M  V30 END CTAB
M  END

$$$$
