
     RDKit          3D

  0  0  0  0  0  0  0  0  0  0999 V3000
M  V30 BEGIN CTAB
M  V30 COUNTS 66 68 0 0 0
M  V30 BEGIN ATOM
M  V30 1 C -0.0256 0.3402 -0.2784 0
M  V30 2 C -0.2256 0.1444 -0.0835 0
M  V30 3 C -0.4263 -0.1347 -0.0456 0
M  V30 4 O -0.4361 -0.4168 0.0081 0
M  V30 5 C -0.4042 -0.6793 0.0579 0
M  V30 6 C -0.3121 -0.7972 0.2939 0
M  V30 7 C -0.1734 -0.7195 0.4905 0
M  V30 8 H -0.0646 0.4804 -0.3243 0
M  V30 9 H -0.0916 0.4232 -0.3900 0
M  V30 10 H -0.3645 0.1830 -0.1275 0
M  V30 11 H -0.5820 -0.1592 -0.0125 0
M  V30 12 H -0.5791 -0.1625 -0.0963 0
M  V30 13 H -0.4896 -0.8009 0.0662 0
M  V30 14 H -0.3832 -0.9215 0.3558 0
M  V30 15 H -0.3056 -0.9500 0.3155 0
M  V30 16 H -0.0555 -0.8086 0.5059 0
M  V30 17 H -0.1148 -0.8261 0.5754 0
M  V30 18 C -0.3420 0.0585 0.1010 0
M  V30 19 C -0.2359 -0.0270 -0.1989 0
M  V30 20 C 0.0091 0.1220 -0.2825 0
M  V30 21 O 0.2434 0.2546 -0.1547 0
M  V30 22 C 0.4552 0.3880 -0.0095 0
M  V30 23 C 0.7127 0.5043 -0.0434 0
M  V30 24 C 0.8499 0.6352 -0.1661 0
M  V30 25 H -0.4602 0.1762 0.0841 0
M  V30 26 H -0.4278 0.1926 0.1546 0
M  V30 27 H -0.3094 -0.0016 -0.3243 0
M  V30 28 H -0.0170 0.1638 -0.4370 0
M  V30 29 H 0.0443 0.1001 -0.4365 0
M  V30 30 H 0.5410 0.4616 0.0336 0
M  V30 31 H 0.8497 0.4722 -0.0217 0
M  V30 32 H 0.8145 0.5396 0.0469 0
M  V30 33 H 0.9369 0.7607 -0.1402 0
M  V30 34 H 1.0000 0.6942 -0.1632 0
M  V30 35 C -0.3975 -0.7140 -0.1746 0
M  V30 36 N -0.3597 -0.5325 -0.3170 0
M  V30 37 C -0.3184 -0.2835 -0.3458 0
M  V30 38 H -0.4395 -0.8552 -0.1945 0
M  V30 39 H -0.3989 -0.8387 -0.2643 0
M  V30 40 H -0.3750 -0.6259 -0.4310 0
M  V30 41 H -0.3162 -0.3360 -0.4888 0
M  V30 42 H -0.4066 -0.3132 -0.4703 0
M  V30 43 C -0.3309 -0.0432 0.3960 0
M  V30 44 N -0.2441 -0.2543 0.5576 0
M  V30 45 C -0.1645 -0.5002 0.6090 0
M  V30 46 H -0.4045 -0.0237 0.5274 0
M  V30 47 H -0.3862 0.0501 0.5097 0
M  V30 48 H -0.2579 -0.2508 0.7045 0
M  V30 49 H -0.0984 -0.5736 0.7215 0
M  V30 50 H -0.1531 -0.5191 0.7551 0
M  V30 51 C 0.3365 0.3697 0.1920 0
M  V30 52 N 0.1120 0.3119 0.2276 0
M  V30 53 C -0.1086 0.2365 0.1406 0
M  V30 54 H 0.4314 0.3581 0.3019 0
M  V30 55 H 0.3906 0.4528 0.3015 0
M  V30 56 H 0.1286 0.3601 0.3629 0
M  V30 57 H -0.1563 0.2185 0.2680 0
M  V30 58 H -0.1881 0.3125 0.2390 0
M  V30 59 C 0.2536 0.4350 -0.4037 0
M  V30 60 N 0.5236 0.5272 -0.4146 0
M  V30 61 C 0.7588 0.5956 -0.3394 0
M  V30 62 H 0.3164 0.4095 -0.5252 0
M  V30 63 H 0.2684 0.5116 -0.5231 0
M  V30 64 H 0.5918 0.5908 -0.5305 0
M  V30 65 H 0.8710 0.6419 -0.4249 0
M  V30 66 H 0.8913 0.5922 -0.3197 0
M  V30 END ATOM
M  V30 BEGIN BOND
M  V30 1 1 1 2
M  V30 2 1 2 3
M  V30 3 1 3 4
M  V30 4 1 4 5
M  V30 5 1 5 6
M  V30 6 1 6 7
M  V30 7 1 1 8
M  V30 8 1 1 9
M  V30 9 1 2 10
M  V30 10 1 3 11
M  V30 11 1 3 12
M  V30 12 1 5 13
M  V30 13 1 6 14
M  V30 14 1 6 15
M  V30 15 1 7 16
M  V30 16 1 7 17
M  V30 17 1 18 19
M  V30 18 1 19 20
M  V30 19 1 20 21
M  V30 20 1 21 22
M  V30 21 1 22 23
M  V30 22 1 23 24
M  V30 23 1 18 25
M  V30 24 1 18 26
M  V30 25 1 19 27
M  V30 26 1 20 28
M  V30 27 1 20 29
M  V30 28 1 22 30
M  V30 29 1 23 31
M  V30 30 1 23 32
M  V30 31 1 24 33
M  V30 32 1 24 34
M  V30 33 1 35 36
M  V30 34 1 36 37
M  V30 35 1 35 38
M  V30 36 1 35 39
M  V30 37 1 36 40
M  V30 38 1 37 41
M  V30 39 1 37 42
M  V30 40 1 43 44
M  V30 41 1 44 45
M  V30 42 1 43 46
M  V30 43 1 43 47
M  V30 44 1 44 48
M  V30 45 1 45 49
M  V30 46 1 45 50
M  V30 47 1 51 52
M  V30 48 1 52 53
M  V30 49 1 51 54
M  V30 50 1 51 55
M  V30 51 1 52 56
M  V30 52 1 53 57
M  V30 53 1 53 58
M  V30 54 1 59 60
M  V30 55 1 60 61
M  V30 56 1 59 62
M  V30 57 1 59 63
M  V30 58 1 60 64
M  V30 59 1 61 65
M  V30 60 1 61 66
M  V30 61 1 1 59
M  V30 62 1 7 45
M  V30 63 1 5 35
M  V30 64 1 2 53
M  V30 65 1 18 43
M  V30 66 1 24 61
M  V30 67 1 22 51
M  V30 68 1 19 37
M  V30 END BOND
M  V30 END CTAB
M  END

$$$$
