
     RDKit          3D

  0  0  0  0  0  0  0  0  0  0999 V3000
M  V30 BEGIN CTAB
M  V30 COUNTS 38 38 0 0 0
M  V30 BEGIN ATOM
M  V30 1 C -0.0157 -3.2016 -0.6972 0
M  V30 2 B -1.3496 -2.7241 0.2375 0
M  V30 3 C -2.5205 -1.7298 0.7969 0
M  V30 4 H 0.0287 -3.8227 -0.2914 0
M  V30 5 H -1.6122 -3.4161 0.7348 0
M  V30 6 H -2.8997 -2.1402 1.5523 0
M  V30 7 H -3.3366 -2.1030 1.0822 0
M  V30 8 C 0.6567 1.9103 -0.9501 0
M  V30 9 B 1.4875 2.7493 0.4378 0
M  V30 10 C 1.9524 3.2845 1.9916 0
M  V30 11 H 1.0524 2.5195 -1.4409 0
M  V30 12 H 2.0772 3.3416 0.2682 0
M  V30 13 H 2.3720 4.0658 2.1299 0
M  V30 14 H 2.7418 3.3374 2.3229 0
M  V30 15 C -2.9157 -0.2082 0.5624 0
M  V30 16 N -2.2300 1.0795 -0.0949 0
M  V30 17 C -0.9902 1.9390 -0.7372 0
M  V30 18 H -3.5966 0.0156 1.1623 0
M  V30 19 H -3.8541 -0.1793 0.5193 0
M  V30 20 H -2.9717 1.5995 -0.1230 0
M  V30 21 H -1.4640 2.4564 -1.3300 0
M  V30 22 H -1.2234 2.8105 -0.7981 0
M  V30 23 C 1.0055 0.6769 -2.2111 0
M  V30 24 N 0.6964 -0.8898 -2.5224 0
M  V30 25 C 0.1640 -2.3344 -2.0569 0
M  V30 26 H 1.6165 1.0636 -2.8596 0
M  V30 27 H 1.3850 0.5802 -3.1015 0
M  V30 28 H 0.9049 -1.0746 -3.4273 0
M  V30 29 H -0.2108 -2.4603 -2.8796 0
M  V30 30 H -0.1570 -3.0001 -2.6013 0
M  V30 31 C 1.7400 3.4601 3.4520 0
M  V30 32 H 1.4595 4.0472 4.0422 0
M  V30 33 H 2.1042 3.5699 4.2757 0
M  V30 34 H 1.3815 3.1970 4.2284 0
M  V30 35 C 1.1916 -4.2067 -0.4855 0
M  V30 36 H 1.6311 -4.8811 -0.0034 0
M  V30 37 H 2.1063 -4.3318 -0.4178 0
M  V30 38 H 1.5926 -5.0000 -0.7674 0
M  V30 END ATOM
M  V30 BEGIN BOND
M  V30 1 1 1 2
M  V30 2 1 2 3
M  V30 3 1 1 4
M  V30 4 1 2 5
M  V30 5 1 3 6
M  V30 6 1 3 7
M  V30 7 1 8 9
M  V30 8 1 9 10
M  V30 9 1 8 11
M  V30 10 1 9 12
M  V30 11 1 10 13
M  V30 12 1 10 14
M  V30 13 1 15 16
M  V30 14 1 16 17
M  V30 15 1 15 18
M  V30 16 1 15 19
M  V30 17 1 16 20
M  V30 18 1 17 21
M  V30 19 1 17 22
M  V30 20 1 23 24
M  V30 21 1 24 25
M  V30 22 1 23 26
M  V30 23 1 23 27
M  V30 24 1 24 28
M  V30 25 1 25 29
M  V30 26 1 25 30
M  V30 27 1 31 32
M  V30 28 1 31 33
M  V30 29 1 31 34
M  V30 30 1 35 36
M  V30 31 1 35 37
M  V30 32 1 35 38
M  V30 33 1 1 35
M  V30 34 1 3 15
M  V30 35 1 1 25
M  V30 36 1 8 17
M  V30 37 1 10 31
M  V30 38 1 8 23
M  V30 END BOND
M  V30 END CTAB
M  END

$$$$
