
     RDKit          3D

  0  0  0  0  0  0  0  0  0  0999 V3000
M  V30 BEGIN CTAB
M  V30 COUNTS 66 68 0 0 0
M  V30 BEGIN ATOM
M  V30 1 C 0.2402 -0.4819 0.2011 0
M  V30 2 C 0.2475 -0.4588 0.3781 0
M  V30 3 C 0.1143 -0.4267 0.4918 0
M  V30 4 O 0.0936 -0.2745 0.5630 0
M  V30 5 C 0.1413 -0.1211 0.6145 0
M  V30 6 C 0.0666 0.0330 0.5725 0
M  V30 7 C 0.0365 0.1685 0.4671 0
M  V30 8 H 0.1600 -0.6290 0.1857 0
M  V30 9 H 0.3560 -0.5925 0.1724 0
M  V30 10 H 0.2480 -0.6156 0.4089 0
M  V30 11 H 0.0806 -0.5417 0.6052 0
M  V30 12 H -0.0201 -0.5163 0.5267 0
M  V30 13 H 0.0595 -0.1440 0.7565 0
M  V30 14 H 0.1015 0.1228 0.7026 0
M  V30 15 H -0.0716 0.0314 0.6711 0
M  V30 16 H -0.0724 0.2450 0.5663 0
M  V30 17 H 0.1334 0.2920 0.5307 0
M  V30 18 C 0.1039 -0.0225 -0.1984 0
M  V30 19 C -0.0048 0.1209 -0.1631 0
M  V30 20 C -0.1496 0.1516 -0.2663 0
M  V30 21 O -0.2155 0.2380 -0.3971 0
M  V30 22 C -0.3057 0.3231 -0.5117 0
M  V30 23 C -0.4741 0.2964 -0.5608 0
M  V30 24 C -0.5303 0.2806 -0.7220 0
M  V30 25 H 0.2576 0.0359 -0.2526 0
M  V30 26 H 0.1612 -0.0319 -0.3402 0
M  V30 27 H 0.0933 0.2083 -0.2380 0
M  V30 28 H -0.2356 0.0297 -0.3017 0
M  V30 29 H -0.2880 0.1432 -0.1951 0
M  V30 30 H -0.3407 0.4630 -0.4413 0
M  V30 31 H -0.6059 0.2243 -0.5135 0
M  V30 32 H -0.5896 0.4030 -0.4983 0
M  V30 33 H -0.6889 0.3047 -0.7339 0
M  V30 34 H -0.5977 0.1508 -0.7923 0
M  V30 35 C -0.2382 0.4092 -0.6497 0
M  V30 36 N -0.3036 0.3850 -0.8028 0
M  V30 37 C -0.4634 0.3703 -0.8504 0
M  V30 38 H -0.2189 0.5768 -0.6489 0
M  V30 39 H -0.1089 0.4636 -0.7209 0
M  V30 40 H -0.2180 0.4004 -0.9362 0
M  V30 41 H -0.5366 0.4957 -0.9216 0
M  V30 42 H -0.4887 0.3264 -1.0000 0
M  V30 43 C -0.0170 0.2406 0.3198 0
M  V30 44 N 0.0147 0.2589 0.1529 0
M  V30 45 C 0.0225 0.2271 -0.0170 0
M  V30 46 H -0.1716 0.2869 0.3593 0
M  V30 47 H -0.0143 0.3979 0.3703 0
M  V30 48 H 0.0879 0.4132 0.1673 0
M  V30 49 H 0.1567 0.3335 -0.0472 0
M  V30 50 H -0.0045 0.3745 -0.0289 0
M  V30 51 C 0.3862 -0.4190 0.4810 0
M  V30 52 N 0.3969 -0.2887 0.5946 0
M  V30 53 C 0.3030 -0.1629 0.6655 0
M  V30 54 H 0.5437 -0.4533 0.4655 0
M  V30 55 H 0.4480 -0.5482 0.5601 0
M  V30 56 H 0.5383 -0.2969 0.6737 0
M  V30 57 H 0.4191 -0.0788 0.7397 0
M  V30 58 H 0.3134 -0.1800 0.8282 0
M  V30 59 C 0.2375 -0.4285 0.0348 0
M  V30 60 N 0.1585 -0.3317 -0.0812 0
M  V30 61 C 0.1495 -0.1917 -0.1784 0
M  V30 62 H 0.3878 -0.4671 -0.0325 0
M  V30 63 H 0.2288 -0.5732 -0.0436 0
M  V30 64 H 0.0766 -0.4545 -0.1624 0
M  V30 65 H 0.1192 -0.2831 -0.3061 0
M  V30 66 H 0.2907 -0.2119 -0.2728 0
M  V30 END ATOM
M  V30 BEGIN BOND
M  V30 1 1 1 2
M  V30 2 1 2 3
M  V30 3 1 3 4
M  V30 4 1 4 5
M  V30 5 1 5 6
M  V30 6 1 6 7
M  V30 7 1 1 8
M  V30 8 1 1 9
M  V30 9 1 2 10
M  V30 10 1 3 11
M  V30 11 1 3 12
M  V30 12 1 5 13
M  V30 13 1 6 14
M  V30 14 1 6 15
M  V30 15 1 7 16
M  V30 16 1 7 17
M  V30 17 1 18 19
M  V30 18 1 19 20
M  V30 19 1 20 21
M  V30 20 1 21 22
M  V30 21 1 22 23
M  V30 22 1 23 24
M  V30 23 1 18 25
M  V30 24 1 18 26
M  V30 25 1 19 27
M  V30 26 1 20 28
M  V30 27 1 20 29
M  V30 28 1 22 30
M  V30 29 1 23 31
M  V30 30 1 23 32
M  V30 31 1 24 33
M  V30 32 1 24 34
M  V30 33 1 35 36
M  V30 34 1 36 37
M  V30 35 1 35 38
M  V30 36 1 35 39
M  V30 37 1 36 40
M  V30 38 1 37 41
M  V30 39 1 37 42
M  V30 40 1 43 44
M  V30 41 1 44 45
M  V30 42 1 43 46
M  V30 43 1 43 47
M  V30 44 1 44 48
M  V30 45 1 45 49
M  V30 46 1 45 50
M  V30 47 1 51 52
M  V30 48 1 52 53
M  V30 49 1 51 54
M  V30 50 1 51 55
M  V30 51 1 52 56
M  V30 52 1 53 57
M  V30 53 1 53 58
M  V30 54 1 59 60
M  V30 55 1 60 61
M  V30 56 1 59 62
M  V30 57 1 59 63
M  V30 58 1 60 64
M  V30 59 1 61 65
M  V30 60 1 61 66
M  V30 61 1 1 59
M  V30 62 1 2 51
M  V30 63 1 5 53
M  V30 64 1 7 43
M  V30 65 1 18 61
M  V30 66 1 19 45
M  V30 67 1 22 35
M  V30 68 1 24 37
M  V30 END BOND
M  V30 END CTAB
M  END

$$$$
