
     RDKit          3D

  0  0  0  0  0  0  0  0  0  0999 V3000
M  V30 BEGIN CTAB
M  V30 COUNTS 38 38 0 0 0
M  V30 BEGIN ATOM
M  V30 1 C 0.0160 0.1631 0.7149 0
M  V30 2 B 0.2690 0.0806 0.5726 0
M  V30 3 C 0.4863 0.0046 0.3888 0
M  V30 4 H 0.0635 0.2019 0.8411 0
M  V30 5 H 0.3495 0.0833 0.6857 0
M  V30 6 H 0.5884 -0.0795 0.4578 0
M  V30 7 H 0.6112 0.0538 0.4580 0
M  V30 8 C -0.0244 -0.1447 -0.4506 0
M  V30 9 B -0.1313 -0.1380 -0.6510 0
M  V30 10 C -0.2941 -0.0757 -0.8112 0
M  V30 11 H 0.0109 -0.2635 -0.4188 0
M  V30 12 H -0.0453 -0.2414 -0.6254 0
M  V30 13 H -0.2609 -0.0215 -0.9500 0
M  V30 14 H -0.3277 -0.1288 -0.9631 0
M  V30 15 C -0.2970 -0.1636 -0.4504 0
M  V30 16 N -0.4744 -0.0957 -0.5791 0
M  V30 17 C -0.4820 -0.0077 -0.7487 0
M  V30 18 H -0.4135 -0.1762 -0.3653 0
M  V30 19 H -0.3763 -0.2903 -0.4120 0
M  V30 20 H -0.6340 -0.1103 -0.5757 0
M  V30 21 H -0.5661 0.1218 -0.7673 0
M  V30 22 H -0.6036 0.0122 -0.8595 0
M  V30 23 C 0.5761 -0.0511 0.1259 0
M  V30 24 N 0.4696 -0.0796 -0.1295 0
M  V30 25 C 0.2649 -0.1017 -0.3366 0
M  V30 26 H 0.7302 -0.0126 0.1206 0
M  V30 27 H 0.7138 -0.1323 0.1173 0
M  V30 28 H 0.6065 -0.0890 -0.1907 0
M  V30 29 H 0.3475 -0.0093 -0.4110 0
M  V30 30 H 0.3702 -0.1458 -0.4292 0
M  V30 31 C -0.1325 0.3687 0.6993 0
M  V30 32 H -0.1552 0.4909 0.7900 0
M  V30 33 H -0.2692 0.4339 0.7221 0
M  V30 34 H -0.1724 0.5080 0.6573 0
M  V30 35 C -0.1479 0.0473 0.8715 0
M  V30 36 H -0.2348 0.0664 1.0000 0
M  V30 37 H -0.1591 -0.0425 0.9967 0
M  V30 38 H -0.2719 -0.0356 0.9053 0
M  V30 END ATOM
M  V30 BEGIN BOND
M  V30 1 1 1 2
M  V30 2 1 2 3
M  V30 3 1 1 4
M  V30 4 1 2 5
M  V30 5 1 3 6
M  V30 6 1 3 7
M  V30 7 1 8 9
M  V30 8 1 9 10
M  V30 9 1 8 11
M  V30 10 1 9 12
M  V30 11 1 10 13
M  V30 12 1 10 14
M  V30 13 1 15 16
M  V30 14 1 16 17
M  V30 15 1 15 18
M  V30 16 1 15 19
M  V30 17 1 16 20
M  V30 18 1 17 21
M  V30 19 1 17 22
M  V30 20 1 23 24
M  V30 21 1 24 25
M  V30 22 1 23 26
M  V30 23 1 23 27
M  V30 24 1 24 28
M  V30 25 1 25 29
M  V30 26 1 25 30
M  V30 27 1 31 32
M  V30 28 1 31 33
M  V30 29 1 31 34
M  V30 30 1 35 36
M  V30 31 1 35 37
M  V30 32 1 35 38
M  V30 33 1 1 35
M  V30 34 1 1 31
M  V30 35 1 3 23
M  V30 36 1 8 25
M  V30 37 1 8 15
M  V30 38 1 10 17
M  V30 END BOND
M  V30 END CTAB
M  END

$$$$
