
     RDKit          3D

  0  0  0  0  0  0  0  0  0  0999 V3000
M  V30 BEGIN CTAB
M  V30 COUNTS 38 38 0 0 0
M  V30 BEGIN ATOM
M  V30 1 C -0.2433 3.1616 -1.1334 0
M  V30 2 B 0.5536 2.7495 -0.0337 0
M  V30 3 C 1.0850 2.2072 1.1273 0
M  V30 4 H 0.0846 3.3603 -1.5897 0
M  V30 5 H 1.0549 3.1282 -0.1291 0
M  V30 6 H 1.7679 2.2457 1.3318 0
M  V30 7 H 1.6309 2.6733 1.2556 0
M  V30 8 C -0.3151 -2.2144 0.9774 0
M  V30 9 B 0.3599 -2.9924 0.4073 0
M  V30 10 C 0.6993 -3.6808 -0.4510 0
M  V30 11 H -0.6434 -2.5397 1.4830 0
M  V30 12 H 0.8419 -3.2101 0.8002 0
M  V30 13 H 0.9915 -4.3788 -0.3707 0
M  V30 14 H 1.3610 -3.9933 -0.6395 0
M  V30 15 C -0.9074 -2.7521 -0.0052 0
M  V30 16 N -0.5728 -3.1916 -0.9828 0
M  V30 17 C 0.1923 -3.7435 -1.3095 0
M  V30 18 H -1.4706 -3.2344 0.1266 0
M  V30 19 H -1.6081 -2.7584 -0.2143 0
M  V30 20 H -0.9172 -3.2120 -1.6451 0
M  V30 21 H 0.1869 -4.3922 -1.7534 0
M  V30 22 H 0.4371 -3.9004 -2.0205 0
M  V30 23 C 0.9213 1.3184 2.1089 0
M  V30 24 N 0.4012 0.1049 2.3126 0
M  V30 25 C -0.1194 -1.1254 1.9750 0
M  V30 26 H 1.4303 1.4157 2.6533 0
M  V30 27 H 0.9262 1.7103 2.7400 0
M  V30 28 H 0.4030 0.1655 3.0367 0
M  V30 29 H -0.1225 -1.3600 2.6656 0
M  V30 30 H -0.6273 -1.0829 2.4954 0
M  V30 31 C -1.2651 2.7154 -1.6618 0
M  V30 32 H -1.7823 2.3202 -1.9507 0
M  V30 33 H -1.6096 2.7632 -2.3027 0
M  V30 34 H -1.9706 2.8652 -1.6598 0
M  V30 35 C -0.2766 4.2705 -1.6984 0
M  V30 36 H -0.6648 4.8808 -1.8888 0
M  V30 37 H -0.1569 4.7069 -2.3108 0
M  V30 38 H -0.0560 5.0000 -1.7456 0
M  V30 END ATOM
M  V30 BEGIN BOND
M  V30 1 1 1 2
M  V30 2 1 2 3
M  V30 3 1 1 4
M  V30 4 1 2 5
M  V30 5 1 3 6
M  V30 6 1 3 7
M  V30 7 1 8 9
M  V30 8 1 9 10
M  V30 9 1 8 11
M  V30 10 1 9 12
M  V30 11 1 10 13
M  V30 12 1 10 14
M  V30 13 1 15 16
M  V30 14 1 16 17
M  V30 15 1 15 18
M  V30 16 1 15 19
M  V30 17 1 16 20
M  V30 18 1 17 21
M  V30 19 1 17 22
M  V30 20 1 23 24
M  V30 21 1 24 25
M  V30 22 1 23 26
M  V30 23 1 23 27
M  V30 24 1 24 28
M  V30 25 1 25 29
M  V30 26 1 25 30
M  V30 27 1 31 32
M  V30 28 1 31 33
M  V30 29 1 31 34
M  V30 30 1 35 36
M  V30 31 1 35 37
M  V30 32 1 35 38
M  V30 33 1 1 35
M  V30 34 1 1 31
M  V30 35 1 3 23
M  V30 36 1 8 25
M  V30 37 1 8 15
M  V30 38 1 10 17
M  V30 END BOND
M  V30 END CTAB
M  END

$$$$
