
     RDKit          3D

  0  0  0  0  0  0  0  0  0  0999 V3000
M  V30 BEGIN CTAB
M  V30 COUNTS 66 68 0 0 0
M  V30 BEGIN ATOM
M  V30 1 C -2.3063 -2.3462 -1.0779 0
M  V30 2 C -2.2458 -1.5483 -2.3196 0
M  V30 3 C -2.3398 -0.5710 -2.6908 0
M  V30 4 O -1.8006 0.3873 -2.7728 0
M  V30 5 C -1.2666 1.3172 -2.8077 0
M  V30 6 C -1.2321 2.3675 -1.8835 0
M  V30 7 C -1.3259 2.9966 -0.6740 0
M  V30 8 H -2.4405 -2.9265 -1.2645 0
M  V30 9 H -2.8093 -2.7074 -1.1349 0
M  V30 10 H -2.5566 -2.0167 -2.5799 0
M  V30 11 H -2.9271 -0.3995 -2.8860 0
M  V30 12 H -2.8357 -0.7905 -2.9835 0
M  V30 13 H -1.1893 1.7100 -3.2423 0
M  V30 14 H -1.0343 2.8686 -2.1836 0
M  V30 15 H -1.4648 2.8255 -2.2015 0
M  V30 16 H -1.2274 3.6081 -0.7653 0
M  V30 17 H -1.6692 3.5182 -0.7737 0
M  V30 18 C -0.7232 -0.9245 3.1182 0
M  V30 19 C -0.3433 0.3057 2.9382 0
M  V30 20 C 0.8182 0.0567 2.5915 0
M  V30 21 O 1.9984 -0.1051 2.1251 0
M  V30 22 C 3.1818 -0.2520 1.6156 0
M  V30 23 C 4.0018 0.2924 1.2562 0
M  V30 24 C 4.3897 0.4380 0.3957 0
M  V30 25 H -0.6103 -0.8743 3.7534 0
M  V30 26 H -0.3836 -1.1798 3.5957 0
M  V30 27 H -0.4566 0.4514 3.5394 0
M  V30 28 H 0.7194 -0.3772 2.7080 0
M  V30 29 H 0.4062 0.1439 2.6225 0
M  V30 30 H 3.4556 -0.3616 2.1298 0
M  V30 31 H 4.5801 0.3879 1.5811 0
M  V30 32 H 4.2709 0.7415 1.5790 0
M  V30 33 H 4.3567 0.9925 0.1554 0
M  V30 34 H 5.0000 0.7170 0.3248 0
M  V30 35 C 3.8330 -0.8750 1.0545 0
M  V30 36 N 4.1353 -0.7956 0.2036 0
M  V30 37 C 4.4232 -0.1619 -0.2160 0
M  V30 38 H 4.0926 -1.4545 1.1399 0
M  V30 39 H 4.3764 -1.1751 1.3090 0
M  V30 40 H 4.2133 -1.2541 -0.2177 0
M  V30 41 H 4.9918 -0.1976 -0.5627 0
M  V30 42 H 4.4257 -0.1457 -0.8405 0
M  V30 43 C -1.3807 3.0537 0.6413 0
M  V30 44 N -1.2236 2.4602 1.7850 0
M  V30 45 C -0.9069 1.5344 2.6567 0
M  V30 46 H -1.7730 3.5357 0.7911 0
M  V30 47 H -1.3620 3.6647 0.8143 0
M  V30 48 H -1.4478 2.9271 2.1352 0
M  V30 49 H -1.3196 1.7761 3.1046 0
M  V30 50 H -0.9387 1.9170 3.1860 0
M  V30 51 C -1.9705 -1.0870 -3.4102 0
M  V30 52 N -1.4841 -0.2619 -3.9013 0
M  V30 53 C -1.0319 0.6528 -3.7143 0
M  V30 54 H -2.0703 -1.4967 -3.9430 0
M  V30 55 H -2.2574 -0.9739 -3.9072 0
M  V30 56 H -1.4950 -0.3262 -4.5765 0
M  V30 57 H -0.7676 0.9065 -4.2809 0
M  V30 58 H -0.5525 0.5995 -4.1769 0
M  V30 59 C -2.1267 -2.7135 0.2762 0
M  V30 60 N -1.7306 -2.5410 1.5437 0
M  V30 61 C -1.2552 -1.9889 2.6166 0
M  V30 62 H -2.2102 -3.3352 0.3145 0
M  V30 63 H -2.5789 -3.1215 0.4276 0
M  V30 64 H -1.9209 -3.0646 1.8242 0
M  V30 65 H -1.1481 -2.4859 3.0268 0
M  V30 66 H -1.5295 -2.3176 3.1081 0
M  V30 END ATOM
M  V30 BEGIN BOND
M  V30 1 1 1 2
M  V30 2 1 2 3
M  V30 3 1 3 4
M  V30 4 1 4 5
M  V30 5 1 5 6
M  V30 6 1 6 7
M  V30 7 1 1 8
M  V30 8 1 1 9
M  V30 9 1 2 10
M  V30 10 1 3 11
M  V30 11 1 3 12
M  V30 12 1 5 13
M  V30 13 1 6 14
M  V30 14 1 6 15
M  V30 15 1 7 16
M  V30 16 1 7 17
M  V30 17 1 18 19
M  V30 18 1 19 20
M  V30 19 1 20 21
M  V30 20 1 21 22
M  V30 21 1 22 23
M  V30 22 1 23 24
M  V30 23 1 18 25
M  V30 24 1 18 26
M  V30 25 1 19 27
M  V30 26 1 20 28
M  V30 27 1 20 29
M  V30 28 1 22 30
M  V30 29 1 23 31
M  V30 30 1 23 32
M  V30 31 1 24 33
M  V30 32 1 24 34
M  V30 33 1 35 36
M  V30 34 1 36 37
M  V30 35 1 35 38
M  V30 36 1 35 39
M  V30 37 1 36 40
M  V30 38 1 37 41
M  V30 39 1 37 42
M  V30 40 1 43 44
M  V30 41 1 44 45
M  V30 42 1 43 46
M  V30 43 1 43 47
M  V30 44 1 44 48
M  V30 45 1 45 49
M  V30 46 1 45 50
M  V30 47 1 51 52
M  V30 48 1 52 53
M  V30 49 1 51 54
M  V30 50 1 51 55
M  V30 51 1 52 56
M  V30 52 1 53 57
M  V30 53 1 53 58
M  V30 54 1 59 60
M  V30 55 1 60 61
M  V30 56 1 59 62
M  V30 57 1 59 63
M  V30 58 1 60 64
M  V30 59 1 61 65
M  V30 60 1 61 66
M  V30 61 1 1 59
M  V30 62 1 2 51
M  V30 63 1 5 53
M  V30 64 1 7 43
M  V30 65 1 18 61
M  V30 66 1 19 45
M  V30 67 1 22 35
M  V30 68 1 24 37
M  V30 END BOND
M  V30 END CTAB
M  END

$$$$
