
     RDKit          3D

  0  0  0  0  0  0  0  0  0  0999 V3000
M  V30 BEGIN CTAB
M  V30 COUNTS 38 38 0 0 0
M  V30 BEGIN ATOM
M  V30 1 C 3.0099 2.5619 0.2428 0
M  V30 2 B 2.2784 1.8385 -0.3172 0
M  V30 3 C 1.6647 0.8690 -0.4538 0
M  V30 4 H 2.9031 2.6194 1.3140 0
M  V30 5 H 2.3898 2.1855 -1.3861 0
M  V30 6 H 2.3704 0.0867 -0.1857 0
M  V30 7 H 2.1144 0.4691 -1.4284 0
M  V30 8 C -1.6757 -1.7413 0.3658 0
M  V30 9 B -1.9645 -2.4999 -0.5041 0
M  V30 10 C -2.9570 -2.7875 -1.0257 0
M  V30 11 H -1.3218 -2.5594 1.0801 0
M  V30 12 H -1.4109 -3.4577 -0.7120 0
M  V30 13 H -2.9319 -3.8049 -1.4378 0
M  V30 14 H -3.1474 -2.6809 -2.1046 0
M  V30 15 C -2.7310 -1.5769 0.9110 0
M  V30 16 N -3.7029 -1.8246 0.3286 0
M  V30 17 C -3.9574 -2.6402 -0.4377 0
M  V30 18 H -3.2106 -0.8706 1.5747 0
M  V30 19 H -2.8928 -2.0131 1.9613 0
M  V30 20 H -4.6206 -1.2860 0.5539 0
M  V30 21 H -4.5743 -3.4932 -0.0996 0
M  V30 22 H -4.8838 -2.5083 -0.9924 0
M  V30 23 C 0.5283 0.5695 -0.4857 0
M  V30 24 N -0.2027 -0.0850 0.1324 0
M  V30 25 C -0.6873 -1.0972 0.4272 0
M  V30 26 H -0.1114 1.4151 -0.8225 0
M  V30 27 H 0.3820 0.5005 -1.5902 0
M  V30 28 H -0.6554 0.6539 0.8213 0
M  V30 29 H 0.0966 -1.8841 0.4478 0
M  V30 30 H -0.3888 -1.2072 1.5165 0
M  V30 31 C 2.8571 3.7420 0.1536 0
M  V30 32 H 2.9724 4.4386 1.0000 0
M  V30 33 H 2.2599 4.6176 0.0280 0
M  V30 34 H 3.3063 4.4096 -0.5950 0
M  V30 35 C 4.1737 2.3142 0.3500 0
M  V30 36 H 4.9704 2.5855 -0.3545 0
M  V30 37 H 4.7508 2.4987 1.2725 0
M  V30 38 H 5.0000 1.6428 0.4515 0
M  V30 END ATOM
M  V30 BEGIN BOND
M  V30 1 1 1 2
M  V30 2 1 2 3
M  V30 3 1 1 4
M  V30 4 1 2 5
M  V30 5 1 3 6
M  V30 6 1 3 7
M  V30 7 1 8 9
M  V30 8 1 9 10
M  V30 9 1 8 11
M  V30 10 1 9 12
M  V30 11 1 10 13
M  V30 12 1 10 14
M  V30 13 1 15 16
M  V30 14 1 16 17
M  V30 15 1 15 18
M  V30 16 1 15 19
M  V30 17 1 16 20
M  V30 18 1 17 21
M  V30 19 1 17 22
M  V30 20 1 23 24
M  V30 21 1 24 25
M  V30 22 1 23 26
M  V30 23 1 23 27
M  V30 24 1 24 28
M  V30 25 1 25 29
M  V30 26 1 25 30
M  V30 27 1 31 32
M  V30 28 1 31 33
M  V30 29 1 31 34
M  V30 30 1 35 36
M  V30 31 1 35 37
M  V30 32 1 35 38
M  V30 33 1 1 35
M  V30 34 1 1 31
M  V30 35 1 3 23
M  V30 36 1 8 25
M  V30 37 1 8 15
M  V30 38 1 10 17
M  V30 END BOND
M  V30 END CTAB
M  END

$$$$
