
     RDKit          3D

  0  0  0  0  0  0  0  0  0  0999 V3000
M  V30 BEGIN CTAB
M  V30 COUNTS 66 68 0 0 0
M  V30 BEGIN ATOM
M  V30 1 C 0.2499 -0.3401 -0.5147 0
M  V30 2 C 0.0248 -0.2829 -0.4430 0
M  V30 3 C -0.0839 -0.0665 -0.4809 0
M  V30 4 O -0.1751 0.1284 -0.3907 0
M  V30 5 C -0.2909 0.3114 -0.2909 0
M  V30 6 C -0.2222 0.5420 -0.3105 0
M  V30 7 C -0.1404 0.7269 -0.1917 0
M  V30 8 H 0.3267 -0.2649 -0.6980 0
M  V30 9 H 0.2371 -0.4619 -0.7001 0
M  V30 10 H -0.0556 -0.3584 -0.6213 0
M  V30 11 H -0.0301 0.0113 -0.6697 0
M  V30 12 H -0.2202 -0.0949 -0.6534 0
M  V30 13 H -0.4209 0.3297 -0.4556 0
M  V30 14 H -0.3662 0.6445 -0.4454 0
M  V30 15 H -0.1631 0.6170 -0.4994 0
M  V30 16 H -0.0141 0.8510 -0.3190 0
M  V30 17 H -0.2509 0.8992 -0.2718 0
M  V30 18 C -0.1146 0.4123 0.5097 0
M  V30 19 C -0.1961 0.1914 0.4493 0
M  V30 20 C -0.0745 -0.0181 0.4866 0
M  V30 21 O 0.0316 -0.2050 0.3960 0
M  V30 22 C 0.1137 -0.4061 0.2973 0
M  V30 23 C 0.3443 -0.4768 0.3061 0
M  V30 24 C 0.5365 -0.5153 0.1773 0
M  V30 25 H -0.2123 0.4751 0.6993 0
M  V30 26 H 0.0008 0.4398 0.6860 0
M  V30 27 H -0.2932 0.1721 0.6340 0
M  V30 28 H -0.1640 -0.1102 0.6674 0
M  V30 29 H 0.0306 -0.0111 0.6697 0
M  V30 30 H 0.0661 -0.5192 0.4685 0
M  V30 31 H 0.4501 -0.4638 0.4890 0
M  V30 32 H 0.3571 -0.6494 0.4458 0
M  V30 33 H 0.6227 -0.7006 0.2583 0
M  V30 34 H 0.7168 -0.4758 0.2935 0
M  V30 35 C -0.4636 0.2735 -0.1237 0
M  V30 36 N -0.4840 0.2347 0.1083 0
M  V30 37 C -0.4057 0.1995 0.3275 0
M  V30 38 H -0.6608 0.2083 -0.2014 0
M  V30 39 H -0.6518 0.3713 -0.1713 0
M  V30 40 H -0.7074 0.2350 0.1367 0
M  V30 41 H -0.5826 0.1053 0.4240 0
M  V30 42 H -0.5731 0.2725 0.4467 0
M  V30 43 C -0.0613 0.6262 0.4303 0
M  V30 44 N -0.0406 0.7517 0.2391 0
M  V30 45 C -0.0787 0.8057 0.0187 0
M  V30 46 H 0.0929 0.7204 0.5523 0
M  V30 47 H -0.1495 0.7734 0.5693 0
M  V30 48 H 0.0637 0.9266 0.3087 0
M  V30 49 H 0.0758 0.9551 -0.0164 0
M  V30 50 H -0.1774 1.0000 0.0381 0
M  V30 51 C -0.0230 -0.5334 0.1414 0
M  V30 52 N -0.0797 -0.5358 -0.0878 0
M  V30 53 C -0.0779 -0.4578 -0.3099 0
M  V30 54 H -0.1821 -0.6584 0.2321 0
M  V30 55 H -0.0436 -0.7426 0.1966 0
M  V30 56 H -0.2050 -0.7222 -0.1035 0
M  V30 57 H -0.1170 -0.6410 -0.4216 0
M  V30 58 H -0.2597 -0.5551 -0.3933 0
M  V30 59 C 0.4615 -0.4125 -0.4449 0
M  V30 60 N 0.5880 -0.4593 -0.2590 0
M  V30 61 C 0.6242 -0.5144 -0.0386 0
M  V30 62 H 0.5269 -0.5719 -0.5830 0
M  V30 63 H 0.6183 -0.3406 -0.5782 0
M  V30 64 H 0.7871 -0.4721 -0.3397 0
M  V30 65 H 0.7297 -0.7050 -0.0582 0
M  V30 66 H 0.8359 -0.4683 -0.0168 0
M  V30 END ATOM
M  V30 BEGIN BOND
M  V30 1 1 1 2
M  V30 2 1 2 3
M  V30 3 1 3 4
M  V30 4 1 4 5
M  V30 5 1 5 6
M  V30 6 1 6 7
M  V30 7 1 1 8
M  V30 8 1 1 9
M  V30 9 1 2 10
M  V30 10 1 3 11
M  V30 11 1 3 12
M  V30 12 1 5 13
M  V30 13 1 6 14
M  V30 14 1 6 15
M  V30 15 1 7 16
M  V30 16 1 7 17
M  V30 17 1 18 19
M  V30 18 1 19 20
M  V30 19 1 20 21
M  V30 20 1 21 22
M  V30 21 1 22 23
M  V30 22 1 23 24
M  V30 23 1 18 25
M  V30 24 1 18 26
M  V30 25 1 19 27
M  V30 26 1 20 28
M  V30 27 1 20 29
M  V30 28 1 22 30
M  V30 29 1 23 31
M  V30 30 1 23 32
M  V30 31 1 24 33
M  V30 32 1 24 34
M  V30 33 1 35 36
M  V30 34 1 36 37
M  V30 35 1 35 38
M  V30 36 1 35 39
M  V30 37 1 36 40
M  V30 38 1 37 41
M  V30 39 1 37 42
M  V30 40 1 43 44
M  V30 41 1 44 45
M  V30 42 1 43 46
M  V30 43 1 43 47
M  V30 44 1 44 48
M  V30 45 1 45 49
M  V30 46 1 45 50
M  V30 47 1 51 52
M  V30 48 1 52 53
M  V30 49 1 51 54
M  V30 50 1 51 55
M  V30 51 1 52 56
M  V30 52 1 53 57
M  V30 53 1 53 58
M  V30 54 1 59 60
M  V30 55 1 60 61
M  V30 56 1 59 62
M  V30 57 1 59 63
M  V30 58 1 60 64
M  V30 59 1 61 65
M  V30 60 1 61 66
M  V30 61 1 1 59
M  V30 62 1 7 45
M  V30 63 1 5 35
M  V30 64 1 2 53
M  V30 65 1 18 43
M  V30 66 1 24 61
M  V30 67 1 22 51
M  V30 68 1 19 37
M  V30 END BOND
M  V30 END CTAB
M  END

$$$$
