
     RDKit          3D

  0  0  0  0  0  0  0  0  0  0999 V3000
M  V30 BEGIN CTAB
M  V30 COUNTS 66 68 0 0 0
M  V30 BEGIN ATOM
M  V30 1 C 0.1675 0.3771 -0.5791 0
M  V30 2 C -0.0031 0.3515 -0.4616 0
M  V30 3 C -0.0391 0.2027 -0.3383 0
M  V30 4 O -0.0174 0.1651 -0.1168 0
M  V30 5 C 0.0104 0.1583 0.1128 0
M  V30 6 C 0.1135 0.0235 0.3454 0
M  V30 7 C 0.2534 -0.0836 0.5332 0
M  V30 8 H 0.1544 0.4349 -0.6893 0
M  V30 9 H 0.1829 0.3691 -0.7036 0
M  V30 10 H -0.0513 0.3736 -0.5701 0
M  V30 11 H -0.0417 0.1434 -0.4352 0
M  V30 12 H -0.1146 0.1658 -0.4191 0
M  V30 13 H -0.0257 0.2001 0.1919 0
M  V30 14 H 0.0724 0.0351 0.4416 0
M  V30 15 H 0.0888 -0.0433 0.4178 0
M  V30 16 H 0.2565 -0.1647 0.6186 0
M  V30 17 H 0.2314 -0.0995 0.6483 0
M  V30 18 C 0.5230 0.0431 0.0149 0
M  V30 19 C 0.4191 -0.1621 0.1420 0
M  V30 20 C 0.1631 -0.2998 0.1083 0
M  V30 21 O -0.1208 -0.3509 0.0801 0
M  V30 22 C -0.4053 -0.3847 0.0512 0
M  V30 23 C -0.6096 -0.3073 0.0938 0
M  V30 24 C -0.8023 -0.2738 0.0551 0
M  V30 25 H 0.6074 0.1048 0.0639 0
M  V30 26 H 0.6381 0.0500 0.0056 0
M  V30 27 H 0.5033 -0.2322 0.1234 0
M  V30 28 H 0.2095 -0.3924 0.0682 0
M  V30 29 H 0.1682 -0.4098 0.1340 0
M  V30 30 H -0.4105 -0.4858 0.0749 0
M  V30 31 H -0.6417 -0.3181 0.1932 0
M  V30 32 H -0.6694 -0.2509 0.1545 0
M  V30 33 H -0.9008 -0.2076 0.0692 0
M  V30 34 H -0.9050 -0.2717 0.1174 0
M  V30 35 C -0.5845 -0.4660 -0.0400 0
M  V30 36 N -0.7528 -0.4205 -0.0943 0
M  V30 37 C -0.8817 -0.3375 -0.0598 0
M  V30 38 H -0.6111 -0.5611 -0.1048 0
M  V30 39 H -0.6324 -0.5762 -0.0295 0
M  V30 40 H -0.8206 -0.4666 -0.1754 0
M  V30 41 H -1.0000 -0.3802 -0.0699 0
M  V30 42 H -0.9894 -0.3140 -0.1137 0
M  V30 43 C 0.4318 -0.1433 0.6255 0
M  V30 44 N 0.5571 -0.1763 0.5188 0
M  V30 45 C 0.5601 -0.1842 0.3314 0
M  V30 46 H 0.4898 -0.1954 0.7264 0
M  V30 47 H 0.4660 -0.1320 0.7477 0
M  V30 48 H 0.6564 -0.1936 0.5966 0
M  V30 49 H 0.6593 -0.2542 0.3542 0
M  V30 50 H 0.6776 -0.1760 0.3660 0
M  V30 51 C -0.1095 0.4635 -0.3518 0
M  V30 52 N -0.1195 0.4406 -0.1593 0
M  V30 53 C -0.0784 0.3406 0.0164 0
M  V30 54 H -0.1389 0.5772 -0.3955 0
M  V30 55 H -0.1939 0.5259 -0.4152 0
M  V30 56 H -0.1758 0.5461 -0.1528 0
M  V30 57 H -0.1559 0.4059 0.0706 0
M  V30 58 H -0.0855 0.4447 0.0681 0
M  V30 59 C 0.3542 0.3765 -0.5138 0
M  V30 60 N 0.4678 0.3186 -0.3421 0
M  V30 61 C 0.5213 0.2251 -0.1438 0
M  V30 62 H 0.4384 0.4082 -0.6028 0
M  V30 63 H 0.3630 0.4475 -0.5926 0
M  V30 64 H 0.5632 0.3661 -0.3945 0
M  V30 65 H 0.5361 0.3362 -0.1239 0
M  V30 66 H 0.5830 0.2945 -0.0921 0
M  V30 END ATOM
M  V30 BEGIN BOND
M  V30 1 1 1 2
M  V30 2 1 2 3
M  V30 3 1 3 4
M  V30 4 1 4 5
M  V30 5 1 5 6
M  V30 6 1 6 7
M  V30 7 1 1 8
M  V30 8 1 1 9
M  V30 9 1 2 10
M  V30 10 1 3 11
M  V30 11 1 3 12
M  V30 12 1 5 13
M  V30 13 1 6 14
M  V30 14 1 6 15
M  V30 15 1 7 16
M  V30 16 1 7 17
M  V30 17 1 18 19
M  V30 18 1 19 20
M  V30 19 1 20 21
M  V30 20 1 21 22
M  V30 21 1 22 23
M  V30 22 1 23 24
M  V30 23 1 18 25
M  V30 24 1 18 26
M  V30 25 1 19 27
M  V30 26 1 20 28
M  V30 27 1 20 29
M  V30 28 1 22 30
M  V30 29 1 23 31
M  V30 30 1 23 32
M  V30 31 1 24 33
M  V30 32 1 24 34
M  V30 33 1 35 36
M  V30 34 1 36 37
M  V30 35 1 35 38
M  V30 36 1 35 39
M  V30 37 1 36 40
M  V30 38 1 37 41
M  V30 39 1 37 42
M  V30 40 1 43 44
M  V30 41 1 44 45
M  V30 42 1 43 46
M  V30 43 1 43 47
M  V30 44 1 44 48
M  V30 45 1 45 49
M  V30 46 1 45 50
M  V30 47 1 51 52
M  V30 48 1 52 53
M  V30 49 1 51 54
M  V30 50 1 51 55
M  V30 51 1 52 56
M  V30 52 1 53 57
M  V30 53 1 53 58
M  V30 54 1 59 60
M  V30 55 1 60 61
M  V30 56 1 59 62
M  V30 57 1 59 63
M  V30 58 1 60 64
M  V30 59 1 61 65
M  V30 60 1 61 66
M  V30 61 1 1 59
M  V30 62 1 2 51
M  V30 63 1 5 53
M  V30 64 1 7 43
M  V30 65 1 18 61
M  V30 66 1 19 45
M  V30 67 1 22 35
M  V30 68 1 24 37
M  V30 END BOND
M  V30 END CTAB
M  END

$$$$
