
     RDKit          3D

  0  0  0  0  0  0  0  0  0  0999 V3000
M  V30 BEGIN CTAB
M  V30 COUNTS 114 117 0 0 0
M  V30 BEGIN ATOM
M  V30 1 C 0.1957 -0.7414 -0.2164 0
M  V30 2 C 0.2908 -0.5999 -0.3439 0
M  V30 3 C 0.1941 -0.5403 -0.5278 0
M  V30 4 O 0.0611 -0.4035 -0.5978 0
M  V30 5 C -0.0806 -0.2618 -0.6590 0
M  V30 6 C -0.0181 -0.0905 -0.7650 0
M  V30 7 C 0.0454 0.1018 -0.7973 0
M  V30 8 H 0.1925 -0.9033 -0.3157 0
M  V30 9 H 0.3057 -0.8848 -0.1964 0
M  V30 10 H 0.3578 -0.7268 -0.4394 0
M  V30 11 H 0.1808 -0.6796 -0.6579 0
M  V30 12 H 0.2806 -0.6024 -0.6833 0
M  V30 13 H -0.0879 -0.3565 -0.8081 0
M  V30 14 H 0.0461 -0.1553 -0.9294 0
M  V30 15 H -0.1054 -0.0945 -0.9274 0
M  V30 16 H -0.0643 0.1616 -0.9385 0
M  V30 17 H 0.1233 0.0856 -0.9696 0
M  V30 18 C -0.3877 0.1742 0.7462 0
M  V30 19 C -0.5259 0.1526 0.5945 0
M  V30 20 C -0.5949 -0.0214 0.4955 0
M  V30 21 O -0.5894 -0.1720 0.3561 0
M  V30 22 C -0.6003 -0.3317 0.2176 0
M  V30 23 C -0.5236 -0.5259 0.2639 0
M  V30 24 C -0.3932 -0.6859 0.2595 0
M  V30 25 H -0.3986 0.0685 0.8959 0
M  V30 26 H -0.4932 0.1916 0.9057 0
M  V30 27 H -0.6677 0.1419 0.7074 0
M  V30 28 H -0.6862 -0.1089 0.6300 0
M  V30 29 H -0.7799 -0.0104 0.5170 0
M  V30 30 H -0.7528 -0.3712 0.2830 0
M  V30 31 H -0.5991 -0.5948 0.4116 0
M  V30 32 H -0.6770 -0.6343 0.2820 0
M  V30 33 H -0.5079 -0.8374 0.2827 0
M  V30 34 H -0.4006 -0.7772 0.4248 0
M  V30 35 C -0.1266 0.7201 0.4769 0
M  V30 36 C 0.0659 0.6503 0.4954 0
M  V30 37 C 0.2267 0.6645 0.3579 0
M  V30 38 O 0.3423 0.6067 0.1973 0
M  V30 39 C 0.4698 0.5602 0.0336 0
M  V30 40 C 0.6468 0.4409 0.0580 0
M  V30 41 C 0.7685 0.2737 0.0504 0
M  V30 42 H -0.1288 0.8834 0.5781 0
M  V30 43 H -0.1554 0.8941 0.4247 0
M  V30 44 H 0.1273 0.7985 0.5811 0
M  V30 45 H 0.3558 0.7512 0.4583 0
M  V30 46 H 0.2576 0.8470 0.3506 0
M  V30 47 H 0.5558 0.7011 0.0701 0
M  V30 48 H 0.7608 0.5207 0.1751 0
M  V30 49 H 0.7879 0.5590 0.0271 0
M  V30 50 H 0.9359 0.3489 0.0038 0
M  V30 51 H 0.8965 0.2971 0.1866 0
M  V30 52 C 0.0731 -0.8144 -0.0682 0
M  V30 53 N -0.0695 -0.8137 0.0734 0
M  V30 54 C -0.2326 -0.7858 0.1865 0
M  V30 55 H 0.0376 -0.9925 -0.1267 0
M  V30 56 H 0.1737 -0.9463 0.0184 0
M  V30 57 H -0.0279 -0.9801 0.1534 0
M  V30 58 H -0.1855 -0.8960 0.3337 0
M  V30 59 H -0.3061 -0.9605 0.1751 0
M  V30 60 C -0.5634 0.3498 0.5469 0
M  V30 61 N -0.4699 0.5247 0.5026 0
M  V30 62 C -0.3250 0.6666 0.4838 0
M  V30 63 H -0.7353 0.4093 0.5146 0
M  V30 64 H -0.7032 0.4095 0.6644 0
M  V30 65 H -0.6187 0.6442 0.5100 0
M  V30 66 H -0.3998 0.8048 0.5923 0
M  V30 67 H -0.4243 0.8094 0.4120 0
M  V30 68 C -0.2154 0.2713 0.8032 0
M  V30 69 N -0.0617 0.3988 0.7621 0
M  V30 70 C 0.0506 0.5418 0.6705 0
M  V30 71 H -0.2584 0.3288 0.9802 0
M  V30 72 H -0.1495 0.1864 0.9577 0
M  V30 73 H 0.0079 0.4107 0.9397 0
M  V30 74 H 0.0801 0.6653 0.8150 0
M  V30 75 H 0.1813 0.5527 0.7999 0
M  V30 76 C 0.1227 0.2867 -0.7628 0
M  V30 77 C 0.2056 0.4461 -0.6680 0
M  V30 78 S 0.2824 0.5368 -0.5098 0
M  V30 79 C 0.3666 0.6357 -0.3599 0
M  V30 80 C 0.4323 0.6395 -0.1636 0
M  V30 81 H 0.0234 0.3929 -0.8841 0
M  V30 82 H 0.2198 0.3132 -0.9227 0
M  V30 83 H 0.1340 0.5948 -0.7593 0
M  V30 84 H 0.3140 0.5228 -0.8003 0
M  V30 85 H 0.4827 0.7438 -0.4618 0
M  V30 86 H 0.3257 0.8088 -0.4215 0
M  V30 87 H 0.4348 0.8217 -0.1707 0
M  V30 88 H 0.5667 0.7624 -0.2046 0
M  V30 89 C 0.8241 0.0811 0.0131 0
M  V30 90 C 0.8165 -0.1120 -0.0503 0
M  V30 91 S 0.7229 -0.2683 -0.1284 0
M  V30 92 C 0.6453 -0.4307 -0.2120 0
M  V30 93 C 0.4900 -0.5388 -0.2946 0
M  V30 94 H 0.9527 0.0487 0.1487 0
M  V30 95 H 1.0000 0.1094 -0.0476 0
M  V30 96 H 0.9442 -0.1979 0.0594 0
M  V30 97 H 0.9860 -0.1364 -0.1267 0
M  V30 98 H 0.7699 -0.5478 -0.1351 0
M  V30 99 H 0.7997 -0.4799 -0.3097 0
M  V30 100 H 0.6023 -0.6090 -0.4287 0
M  V30 101 H 0.5968 -0.6863 -0.2826 0
M  V30 102 C -0.2895 -0.2865 -0.6211 0
M  V30 103 C -0.4690 -0.2817 -0.5163 0
M  V30 104 S -0.5727 -0.2799 -0.3457 0
M  V30 105 C -0.6846 -0.2915 -0.1809 0
M  V30 106 C -0.6943 -0.3108 0.0250 0
M  V30 107 H -0.3472 -0.4178 -0.7443 0
M  V30 108 H -0.3832 -0.2696 -0.7756 0
M  V30 109 H -0.5903 -0.3862 -0.6175 0
M  V30 110 H -0.6055 -0.2119 -0.6238 0
M  V30 111 H -0.8348 -0.3839 -0.2494 0
M  V30 112 H -0.8448 -0.2170 -0.2456 0
M  V30 113 H -0.8578 -0.4061 0.0253 0
M  V30 114 H -0.8719 -0.2629 0.0273 0
M  V30 END ATOM
M  V30 BEGIN BOND
M  V30 1 1 1 2
M  V30 2 1 2 3
M  V30 3 1 3 4
M  V30 4 1 4 5
M  V30 5 1 5 6
M  V30 6 1 6 7
M  V30 7 1 1 8
M  V30 8 1 1 9
M  V30 9 1 2 10
M  V30 10 1 3 11
M  V30 11 1 3 12
M  V30 12 1 5 13
M  V30 13 1 6 14
M  V30 14 1 6 15
M  V30 15 1 7 16
M  V30 16 1 7 17
M  V30 17 1 18 19
M  V30 18 1 19 20
M  V30 19 1 20 21
M  V30 20 1 21 22
M  V30 21 1 22 23
M  V30 22 1 23 24
M  V30 23 1 18 25
M  V30 24 1 18 26
M  V30 25 1 19 27
M  V30 26 1 20 28
M  V30 27 1 20 29
M  V30 28 1 22 30
M  V30 29 1 23 31
M  V30 30 1 23 32
M  V30 31 1 24 33
M  V30 32 1 24 34
M  V30 33 1 35 36
M  V30 34 1 36 37
M  V30 35 1 37 38
M  V30 36 1 38 39
M  V30 37 1 39 40
M  V30 38 1 40 41
M  V30 39 1 35 42
M  V30 40 1 35 43
M  V30 41 1 36 44
M  V30 42 1 37 45
M  V30 43 1 37 46
M  V30 44 1 39 47
M  V30 45 1 40 48
M  V30 46 1 40 49
M  V30 47 1 41 50
M  V30 48 1 41 51
M  V30 49 1 52 53
M  V30 50 1 53 54
M  V30 51 1 52 55
M  V30 52 1 52 56
M  V30 53 1 53 57
M  V30 54 1 54 58
M  V30 55 1 54 59
M  V30 56 1 60 61
M  V30 57 1 61 62
M  V30 58 1 60 63
M  V30 59 1 60 64
M  V30 60 1 61 65
M  V30 61 1 62 66
M  V30 62 1 62 67
M  V30 63 1 68 69
M  V30 64 1 69 70
M  V30 65 1 68 71
M  V30 66 1 68 72
M  V30 67 1 69 73
M  V30 68 1 70 74
M  V30 69 1 70 75
M  V30 70 1 76 77
M  V30 71 1 77 78
M  V30 72 1 78 79
M  V30 73 1 79 80
M  V30 74 1 76 81
M  V30 75 1 76 82
M  V30 76 1 77 83
M  V30 77 1 77 84
M  V30 78 1 79 85
M  V30 79 1 79 86
M  V30 80 1 80 87
M  V30 81 1 80 88
M  V30 82 1 89 90
M  V30 83 1 90 91
M  V30 84 1 91 92
M  V30 85 1 92 93
M  V30 86 1 89 94
M  V30 87 1 89 95
M  V30 88 1 90 96
M  V30 89 1 90 97
M  V30 90 1 92 98
M  V30 91 1 92 99
M  V30 92 1 93 100
M  V30 93 1 93 101
M  V30 94 1 102 103
M  V30 95 1 103 104
M  V30 96 1 104 105
M  V30 97 1 105 106
M  V30 98 1 102 107
M  V30 99 1 102 108
M  V30 100 1 103 109
M  V30 101 1 103 110
M  V30 102 1 105 111
M  V30 103 1 105 112
M  V30 104 1 106 113
M  V30 105 1 106 114
M  V30 106 1 1 52
M  V30 107 1 5 102
M  V30 108 1 7 76
M  V30 109 1 2 93
M  V30 110 1 18 68
M  V30 111 1 22 106
M  V30 112 1 19 60
M  V30 113 1 24 54
M  V30 114 1 35 62
M  V30 115 1 39 80
M  V30 116 1 36 70
M  V30 117 1 41 89
M  V30 END BOND
M  V30 END CTAB
M  END

$$$$
