
     RDKit          3D

  0  0  0  0  0  0  0  0  0  0999 V3000
M  V30 BEGIN CTAB
M  V30 COUNTS 114 117 0 0 0
M  V30 BEGIN ATOM
M  V30 1 C 1.7771 -3.4854 1.1445 0
M  V30 2 C 1.2594 -3.0316 1.9888 0
M  V30 3 C 0.2138 -3.3185 2.2063 0
M  V30 4 O -0.7597 -3.0543 1.9526 0
M  V30 5 C -1.7418 -2.7606 1.6386 0
M  V30 6 C -2.3590 -2.1683 2.2966 0
M  V30 7 C -2.7834 -1.3148 2.7358 0
M  V30 8 H 1.8586 -4.4267 1.3731 0
M  V30 9 H 2.5341 -3.9238 1.4605 0
M  V30 10 H 1.4661 -3.7178 2.5028 0
M  V30 11 H 0.1084 -3.8318 3.0155 0
M  V30 12 H 0.1057 -4.2438 2.5020 0
M  V30 13 H -2.0121 -3.5257 2.0383 0
M  V30 14 H -3.1406 -2.6726 2.4567 0
M  V30 15 H -2.5507 -2.7427 3.0443 0
M  V30 16 H -3.7253 -1.5201 2.7659 0
M  V30 17 H -3.0886 -1.6763 3.5837 0
M  V30 18 C -0.7175 2.0307 -3.8613 0
M  V30 19 C 0.0673 1.3326 -3.9142 0
M  V30 20 C -0.0058 0.2521 -3.9546 0
M  V30 21 O -0.0682 -0.7192 -3.5589 0
M  V30 22 C -0.1453 -1.7501 -3.2357 0
M  V30 23 C 0.7370 -2.3923 -3.1588 0
M  V30 24 C 1.5167 -2.9298 -2.6915 0
M  V30 25 H -1.4535 1.9587 -4.4472 0
M  V30 26 H -0.8356 2.3418 -4.7860 0
M  V30 27 H 0.1281 1.3529 -4.8413 0
M  V30 28 H -0.4754 0.0980 -4.7696 0
M  V30 29 H 0.4288 0.0592 -4.7721 0
M  V30 30 H -0.2654 -1.9752 -4.0704 0
M  V30 31 H 1.1907 -2.4544 -3.9562 0
M  V30 32 H 0.6379 -3.0283 -3.8784 0
M  V30 33 H 1.6597 -3.6910 -3.2914 0
M  V30 34 H 2.2836 -2.9584 -3.2800 0
M  V30 35 C 0.9600 4.0060 -1.6650 0
M  V30 36 C 0.1345 4.0702 -1.0143 0
M  V30 37 C 0.1042 4.0309 0.0697 0
M  V30 38 O 0.0622 3.5629 1.0140 0
M  V30 39 C 0.0085 3.1530 2.0207 0
M  V30 40 C 0.9113 2.9191 2.6037 0
M  V30 41 C 1.6723 2.3288 3.0446 0
M  V30 42 H 1.7149 4.5456 -1.5118 0
M  V30 43 H 1.1519 4.9373 -1.9156 0
M  V30 44 H 0.1437 5.0000 -0.9752 0
M  V30 45 H -0.3275 4.8470 0.2893 0
M  V30 46 H 0.5642 4.8205 0.3142 0
M  V30 47 H 0.0116 3.9678 2.3116 0
M  V30 48 H 1.4214 3.6867 2.7289 0
M  V30 49 H 0.9072 3.5518 3.3181 0
M  V30 50 H 1.8026 2.7714 3.8966 0
M  V30 51 H 2.4332 2.9119 3.1430 0
M  V30 52 C 2.1063 -3.6279 0.1544 0
M  V30 53 N 2.1641 -3.4891 -0.8625 0
M  V30 54 C 1.9975 -3.3229 -1.8609 0
M  V30 55 H 2.2728 -4.5893 0.1185 0
M  V30 56 H 3.0279 -3.8755 0.2284 0
M  V30 57 H 2.9834 -3.9807 -1.0198 0
M  V30 58 H 2.2034 -4.2111 -2.1965 0
M  V30 59 H 2.9104 -3.4053 -2.1827 0
M  V30 60 C 0.9095 1.9643 -3.7965 0
M  V30 61 N 1.2978 2.7225 -3.1947 0
M  V30 62 C 1.3592 3.4891 -2.4902 0
M  V30 63 H 1.1431 2.2950 -4.6931 0
M  V30 64 H 1.6771 1.8590 -4.3323 0
M  V30 65 H 2.0581 3.0063 -3.7396 0
M  V30 66 H 2.2863 3.7382 -2.5656 0
M  V30 67 H 1.6707 4.2207 -3.0594 0
M  V30 68 C -1.0926 2.8497 -3.3216 0
M  V30 69 N -1.0322 3.5134 -2.5204 0
M  V30 70 C -0.6624 4.0476 -1.7067 0
M  V30 71 H -2.0005 2.9948 -3.6121 0
M  V30 72 H -1.3222 3.4722 -4.0378 0
M  V30 73 H -1.7283 4.1283 -2.8238 0
M  V30 74 H -1.3974 4.6319 -1.6152 0
M  V30 75 H -0.8099 4.9757 -1.9978 0
M  V30 76 C -2.9273 -0.3237 3.0168 0
M  V30 77 C -2.7893 0.7018 3.1184 0
M  V30 78 S -2.2779 1.5627 2.9673 0
M  V30 79 C -1.7951 2.4503 2.8757 0
M  V30 80 C -0.9620 3.0016 2.5238 0
M  V30 81 H -3.2458 -0.4439 3.9214 0
M  V30 82 H -3.8936 -0.2668 3.0471 0
M  V30 83 H -3.1167 0.8798 4.0022 0
M  V30 84 H -3.6868 1.0505 3.1810 0
M  V30 85 H -2.0813 2.8455 3.7076 0
M  V30 86 H -2.5690 3.0141 2.9775 0
M  V30 87 H -1.4542 3.7876 2.6323 0
M  V30 88 H -1.0315 3.6255 3.2441 0
M  V30 89 C 2.2113 1.4728 3.3015 0
M  V30 90 C 2.4828 0.4714 3.3864 0
M  V30 91 S 2.3604 -0.5157 3.1885 0
M  V30 92 C 2.2825 -1.5211 3.0698 0
M  V30 93 C 1.8411 -2.3888 2.6594 0
M  V30 94 H 3.1179 1.8104 3.3778 0
M  V30 95 H 2.4437 1.6899 4.2105 0
M  V30 96 H 3.4400 0.5145 3.5171 0
M  V30 97 H 2.7813 0.4130 4.2966 0
M  V30 98 H 2.5327 -1.7568 3.9744 0
M  V30 99 H 3.2033 -1.6937 3.2762 0
M  V30 100 H 1.9036 -2.8554 3.5011 0
M  V30 101 H 2.5743 -2.8664 2.9849 0
M  V30 102 C -2.1549 -3.0584 0.6711 0
M  V30 103 C -2.3372 -3.0360 -0.3769 0
M  V30 104 S -2.0735 -2.7759 -1.3286 0
M  V30 105 C -1.8175 -2.5988 -2.3011 0
M  V30 106 C -1.1107 -2.2249 -2.9967 0
M  V30 107 H -2.9841 -3.4606 0.7891 0
M  V30 108 H -2.3898 -3.9916 0.7714 0
M  V30 109 H -2.7512 -3.8859 -0.5893 0
M  V30 110 H -3.2709 -3.1569 -0.5557 0
M  V30 111 H -2.2370 -3.3600 -2.7275 0
M  V30 112 H -2.6892 -2.6339 -2.7081 0
M  V30 113 H -1.7401 -2.2470 -3.6960 0
M  V30 114 H -1.3323 -2.8594 -3.6939 0
M  V30 END ATOM
M  V30 BEGIN BOND
M  V30 1 1 1 2
M  V30 2 1 2 3
M  V30 3 1 3 4
M  V30 4 1 4 5
M  V30 5 1 5 6
M  V30 6 1 6 7
M  V30 7 1 1 8
M  V30 8 1 1 9
M  V30 9 1 2 10
M  V30 10 1 3 11
M  V30 11 1 3 12
M  V30 12 1 5 13
M  V30 13 1 6 14
M  V30 14 1 6 15
M  V30 15 1 7 16
M  V30 16 1 7 17
M  V30 17 1 18 19
M  V30 18 1 19 20
M  V30 19 1 20 21
M  V30 20 1 21 22
M  V30 21 1 22 23
M  V30 22 1 23 24
M  V30 23 1 18 25
M  V30 24 1 18 26
M  V30 25 1 19 27
M  V30 26 1 20 28
M  V30 27 1 20 29
M  V30 28 1 22 30
M  V30 29 1 23 31
M  V30 30 1 23 32
M  V30 31 1 24 33
M  V30 32 1 24 34
M  V30 33 1 35 36
M  V30 34 1 36 37
M  V30 35 1 37 38
M  V30 36 1 38 39
M  V30 37 1 39 40
M  V30 38 1 40 41
M  V30 39 1 35 42
M  V30 40 1 35 43
M  V30 41 1 36 44
M  V30 42 1 37 45
M  V30 43 1 37 46
M  V30 44 1 39 47
M  V30 45 1 40 48
M  V30 46 1 40 49
M  V30 47 1 41 50
M  V30 48 1 41 51
M  V30 49 1 52 53
M  V30 50 1 53 54
M  V30 51 1 52 55
M  V30 52 1 52 56
M  V30 53 1 53 57
M  V30 54 1 54 58
M  V30 55 1 54 59
M  V30 56 1 60 61
M  V30 57 1 61 62
M  V30 58 1 60 63
M  V30 59 1 60 64
M  V30 60 1 61 65
M  V30 61 1 62 66
M  V30 62 1 62 67
M  V30 63 1 68 69
M  V30 64 1 69 70
M  V30 65 1 68 71
M  V30 66 1 68 72
M  V30 67 1 69 73
M  V30 68 1 70 74
M  V30 69 1 70 75
M  V30 70 1 76 77
M  V30 71 1 77 78
M  V30 72 1 78 79
M  V30 73 1 79 80
M  V30 74 1 76 81
M  V30 75 1 76 82
M  V30 76 1 77 83
M  V30 77 1 77 84
M  V30 78 1 79 85
M  V30 79 1 79 86
M  V30 80 1 80 87
M  V30 81 1 80 88
M  V30 82 1 89 90
M  V30 83 1 90 91
M  V30 84 1 91 92
M  V30 85 1 92 93
M  V30 86 1 89 94
M  V30 87 1 89 95
M  V30 88 1 90 96
M  V30 89 1 90 97
M  V30 90 1 92 98
M  V30 91 1 92 99
M  V30 92 1 93 100
M  V30 93 1 93 101
M  V30 94 1 102 103
M  V30 95 1 103 104
M  V30 96 1 104 105
M  V30 97 1 105 106
M  V30 98 1 102 107
M  V30 99 1 102 108
M  V30 100 1 103 109
M  V30 101 1 103 110
M  V30 102 1 105 111
M  V30 103 1 105 112
M  V30 104 1 106 113
M  V30 105 1 106 114
M  V30 106 1 1 52
M  V30 107 1 5 102
M  V30 108 1 7 76
M  V30 109 1 2 93
M  V30 110 1 18 68
M  V30 111 1 22 106
M  V30 112 1 19 60
M  V30 113 1 24 54
M  V30 114 1 35 62
M  V30 115 1 39 80
M  V30 116 1 36 70
M  V30 117 1 41 89
M  V30 END BOND
M  V30 END CTAB
M  END

$$$$
