
     RDKit          3D

  0  0  0  0  0  0  0  0  0  0999 V3000
M  V30 BEGIN CTAB
M  V30 COUNTS 114 117 0 0 0
M  V30 BEGIN ATOM
M  V30 1 C -3.3832 -1.7280 -2.2075 0
M  V30 2 C -3.2987 -1.2265 -1.1974 0
M  V30 3 C -3.0860 -0.8979 -0.3815 0
M  V30 4 O -2.0693 -0.5566 -0.4597 0
M  V30 5 C -0.9349 -0.3312 -0.7449 0
M  V30 6 C -0.6418 -1.6148 -0.7819 0
M  V30 7 C -0.2185 -2.7850 -0.6322 0
M  V30 8 H -3.9897 -1.7996 -2.2720 0
M  V30 9 H -3.8724 -2.0513 -2.4056 0
M  V30 10 H -3.9178 -1.3483 -1.1288 0
M  V30 11 H -3.5977 -0.8290 0.0363 0
M  V30 12 H -3.6123 -1.1154 -0.0674 0
M  V30 13 H -1.1891 0.0694 -0.8179 0
M  V30 14 H -0.9196 -1.9654 -0.8832 0
M  V30 15 H -0.6797 -1.7468 -1.2104 0
M  V30 16 H -0.0969 -3.1271 -1.0046 0
M  V30 17 H -0.4192 -3.2274 -0.8201 0
M  V30 18 C -0.0563 3.7615 0.5701 0
M  V30 19 C -0.0144 3.7913 -0.6260 0
M  V30 20 C 0.5227 3.1707 -1.8675 0
M  V30 21 O 1.1315 2.2119 -2.6716 0
M  V30 22 C 1.7053 1.1598 -3.3250 0
M  V30 23 C 1.3792 -0.0149 -4.0017 0
M  V30 24 C 0.6237 -1.0591 -4.2598 0
M  V30 25 H 0.1841 4.2822 0.6179 0
M  V30 26 H -0.2421 4.1812 0.5304 0
M  V30 27 H -0.0732 4.2335 -0.9760 0
M  V30 28 H 0.3621 3.3638 -2.3965 0
M  V30 29 H 0.6049 3.5554 -2.3007 0
M  V30 30 H 1.9863 1.2691 -3.8287 0
M  V30 31 H 1.5827 -0.1837 -4.5348 0
M  V30 32 H 1.7717 0.0123 -4.4579 0
M  V30 33 H 0.9656 -1.4740 -4.4871 0
M  V30 34 H 0.8535 -1.3198 -4.7162 0
M  V30 35 C -0.9153 2.8563 3.1900 0
M  V30 36 C -0.4180 1.6918 3.6929 0
M  V30 37 C 0.1377 0.4234 3.9841 0
M  V30 38 O 0.7014 -0.7978 3.7845 0
M  V30 39 C 1.2716 -1.9885 3.5130 0
M  V30 40 C 2.1143 -2.0799 2.9648 0
M  V30 41 C 2.4930 -1.8255 2.0989 0
M  V30 42 H -1.0555 3.2342 3.6690 0
M  V30 43 H -1.3257 3.0841 3.5889 0
M  V30 44 H -0.6591 1.6010 4.2063 0
M  V30 45 H 0.0019 0.3281 4.5493 0
M  V30 46 H 0.3110 0.4324 4.5392 0
M  V30 47 H 1.3383 -2.1375 4.0510 0
M  V30 48 H 2.5896 -2.2345 3.2252 0
M  V30 49 H 2.3775 -2.4627 3.2556 0
M  V30 50 H 3.0273 -2.0995 2.1326 0
M  V30 51 H 3.0339 -1.8807 2.3820 0
M  V30 52 C -2.7299 -1.9840 -3.1446 0
M  V30 53 N -1.6659 -1.9365 -3.7819 0
M  V30 54 C -0.5064 -1.6782 -4.2372 0
M  V30 55 H -3.0819 -2.3811 -3.4374 0
M  V30 56 H -3.1390 -2.1013 -3.5806 0
M  V30 57 H -1.8813 -2.2096 -4.2639 0
M  V30 58 H -0.4848 -2.0710 -4.6912 0
M  V30 59 H -0.5969 -1.8012 -4.8196 0
M  V30 60 C -0.6063 4.4338 0.0962 0
M  V30 61 N -0.9637 4.3240 1.1987 0
M  V30 62 C -1.1042 3.8089 2.3048 0
M  V30 63 H -0.6197 4.9682 -0.2237 0
M  V30 64 H -0.8593 5.0000 -0.0276 0
M  V30 65 H -1.1984 4.8930 1.2419 0
M  V30 66 H -1.5206 4.2162 2.5170 0
M  V30 67 H -1.2454 4.3402 2.6084 0
M  V30 68 C -0.0624 3.4771 1.7872 0
M  V30 69 N -0.1501 2.9270 2.8276 0
M  V30 70 C -0.3065 2.3241 3.6724 0
M  V30 71 H 0.2572 3.8874 2.0351 0
M  V30 72 H -0.0638 3.9562 2.0713 0
M  V30 73 H 0.0093 3.2202 3.2817 0
M  V30 74 H -0.4520 2.0053 4.1922 0
M  V30 75 H -0.3065 2.2856 4.2721 0
M  V30 76 C 0.2644 -3.7443 -0.1615 0
M  V30 77 C 0.6850 -4.2813 0.6827 0
M  V30 78 S 0.9206 -4.1646 1.6766 0
M  V30 79 C 1.1114 -3.9694 2.6946 0
M  V30 80 C 1.2026 -3.1699 3.4160 0
M  V30 81 H 0.4693 -4.1816 -0.4588 0
M  V30 82 H 0.1835 -4.3085 -0.2744 0
M  V30 83 H 0.9576 -4.7984 0.6005 0
M  V30 84 H 0.6679 -4.8825 0.7512 0
M  V30 85 H 1.0896 -4.5432 2.9525 0
M  V30 86 H 1.3494 -4.3353 2.9575 0
M  V30 87 H 1.3980 -3.5362 3.8866 0
M  V30 88 H 1.0648 -3.5101 3.8775 0
M  V30 89 C 2.0912 -1.3910 1.1704 0
M  V30 90 C 1.1185 -0.9997 0.4557 0
M  V30 91 S -0.1579 -0.7839 -0.0272 0
M  V30 92 C -1.4742 -0.6967 -0.4643 0
M  V30 93 C -2.6480 -0.7732 -0.8411 0
M  V30 94 H 2.6219 -1.5764 1.0383 0
M  V30 95 H 2.6487 -1.3184 1.2547 0
M  V30 96 H 1.5666 -0.8519 0.5133 0
M  V30 97 H 1.5493 -1.1297 0.2455 0
M  V30 98 H -1.8358 -0.3853 -0.4332 0
M  V30 99 H -1.7795 -0.6149 -0.8415 0
M  V30 100 H -3.1750 -0.6312 -1.0995 0
M  V30 101 H -3.2214 -0.5338 -0.7996 0
M  V30 102 C -0.1349 0.7806 -0.9823 0
M  V30 103 C 0.8957 1.5113 -1.1869 0
M  V30 104 S 1.8441 1.7006 -1.6340 0
M  V30 105 C 2.6740 1.7662 -2.1359 0
M  V30 106 C 2.6023 1.4240 -2.9112 0
M  V30 107 H -0.3977 1.1571 -1.2390 0
M  V30 108 H -0.2461 1.2571 -0.9422 0
M  V30 109 H 1.0631 2.0063 -1.2917 0
M  V30 110 H 1.2246 1.9002 -0.9978 0
M  V30 111 H 3.1761 2.1046 -2.2368 0
M  V30 112 H 3.2476 1.8985 -1.9821 0
M  V30 113 H 3.1815 1.3118 -3.0258 0
M  V30 114 H 3.0952 1.5839 -3.2231 0
M  V30 END ATOM
M  V30 BEGIN BOND
M  V30 1 1 1 2
M  V30 2 1 2 3
M  V30 3 1 3 4
M  V30 4 1 4 5
M  V30 5 1 5 6
M  V30 6 1 6 7
M  V30 7 1 1 8
M  V30 8 1 1 9
M  V30 9 1 2 10
M  V30 10 1 3 11
M  V30 11 1 3 12
M  V30 12 1 5 13
M  V30 13 1 6 14
M  V30 14 1 6 15
M  V30 15 1 7 16
M  V30 16 1 7 17
M  V30 17 1 18 19
M  V30 18 1 19 20
M  V30 19 1 20 21
M  V30 20 1 21 22
M  V30 21 1 22 23
M  V30 22 1 23 24
M  V30 23 1 18 25
M  V30 24 1 18 26
M  V30 25 1 19 27
M  V30 26 1 20 28
M  V30 27 1 20 29
M  V30 28 1 22 30
M  V30 29 1 23 31
M  V30 30 1 23 32
M  V30 31 1 24 33
M  V30 32 1 24 34
M  V30 33 1 35 36
M  V30 34 1 36 37
M  V30 35 1 37 38
M  V30 36 1 38 39
M  V30 37 1 39 40
M  V30 38 1 40 41
M  V30 39 1 35 42
M  V30 40 1 35 43
M  V30 41 1 36 44
M  V30 42 1 37 45
M  V30 43 1 37 46
M  V30 44 1 39 47
M  V30 45 1 40 48
M  V30 46 1 40 49
M  V30 47 1 41 50
M  V30 48 1 41 51
M  V30 49 1 52 53
M  V30 50 1 53 54
M  V30 51 1 52 55
M  V30 52 1 52 56
M  V30 53 1 53 57
M  V30 54 1 54 58
M  V30 55 1 54 59
M  V30 56 1 60 61
M  V30 57 1 61 62
M  V30 58 1 60 63
M  V30 59 1 60 64
M  V30 60 1 61 65
M  V30 61 1 62 66
M  V30 62 1 62 67
M  V30 63 1 68 69
M  V30 64 1 69 70
M  V30 65 1 68 71
M  V30 66 1 68 72
M  V30 67 1 69 73
M  V30 68 1 70 74
M  V30 69 1 70 75
M  V30 70 1 76 77
M  V30 71 1 77 78
M  V30 72 1 78 79
M  V30 73 1 79 80
M  V30 74 1 76 81
M  V30 75 1 76 82
M  V30 76 1 77 83
M  V30 77 1 77 84
M  V30 78 1 79 85
M  V30 79 1 79 86
M  V30 80 1 80 87
M  V30 81 1 80 88
M  V30 82 1 89 90
M  V30 83 1 90 91
M  V30 84 1 91 92
M  V30 85 1 92 93
M  V30 86 1 89 94
M  V30 87 1 89 95
M  V30 88 1 90 96
M  V30 89 1 90 97
M  V30 90 1 92 98
M  V30 91 1 92 99
M  V30 92 1 93 100
M  V30 93 1 93 101
M  V30 94 1 102 103
M  V30 95 1 103 104
M  V30 96 1 104 105
M  V30 97 1 105 106
M  V30 98 1 102 107
M  V30 99 1 102 108
M  V30 100 1 103 109
M  V30 101 1 103 110
M  V30 102 1 105 111
M  V30 103 1 105 112
M  V30 104 1 106 113
M  V30 105 1 106 114
M  V30 106 1 1 52
M  V30 107 1 5 102
M  V30 108 1 7 76
M  V30 109 1 2 93
M  V30 110 1 18 68
M  V30 111 1 22 106
M  V30 112 1 19 60
M  V30 113 1 24 54
M  V30 114 1 35 62
M  V30 115 1 39 80
M  V30 116 1 36 70
M  V30 117 1 41 89
M  V30 END BOND
M  V30 END CTAB
M  END

$$$$
