
     RDKit          3D

  0  0  0  0  0  0  0  0  0  0999 V3000
M  V30 BEGIN CTAB
M  V30 COUNTS 114 117 0 0 0
M  V30 BEGIN ATOM
M  V30 1 C 0.0400 -0.8652 -1.5774 0
M  V30 2 C 0.6560 -0.9529 -1.7509 0
M  V30 3 C 0.7544 -1.0768 -2.3781 0
M  V30 4 O 0.7541 -1.4736 -2.8338 0
M  V30 5 C 0.7591 -1.7303 -3.3805 0
M  V30 6 C 0.7073 -2.3456 -3.5161 0
M  V30 7 C 0.9942 -2.6410 -3.9590 0
M  V30 8 H -0.1446 -1.4110 -1.5657 0
M  V30 9 H -0.0908 -0.5020 -1.9751 0
M  V30 10 H 0.7936 -0.4561 -1.9316 0
M  V30 11 H 0.6927 -0.6090 -2.7281 0
M  V30 12 H 1.1648 -0.7582 -2.6141 0
M  V30 13 H 0.2548 -1.6470 -3.6073 0
M  V30 14 H 0.1815 -2.5967 -3.6551 0
M  V30 15 H 0.6696 -2.8605 -3.2909 0
M  V30 16 H 0.6989 -3.1036 -4.1547 0
M  V30 17 H 1.3268 -3.1095 -3.8909 0
M  V30 18 C -1.2504 0.1820 -0.0565 0
M  V30 19 C -1.2816 0.5439 0.4856 0
M  V30 20 C -1.7405 1.0073 0.4755 0
M  V30 21 O -2.2401 1.3645 0.4713 0
M  V30 22 C -2.7519 1.7000 0.5076 0
M  V30 23 C -2.8260 2.2827 0.2430 0
M  V30 24 C -3.0880 2.8346 0.3629 0
M  V30 25 H -1.6367 -0.2373 0.0743 0
M  V30 26 H -1.2276 0.5945 -0.3981 0
M  V30 27 H -1.6113 0.1631 0.6966 0
M  V30 28 H -2.1158 0.7146 0.7132 0
M  V30 29 H -1.5198 1.4627 0.2909 0
M  V30 30 H -2.6680 1.8942 1.0000 0
M  V30 31 H -2.9975 2.2973 -0.3184 0
M  V30 32 H -2.5274 2.6420 -0.0334 0
M  V30 33 H -3.0029 3.2569 -0.0489 0
M  V30 34 H -2.8372 3.3091 0.5968 0
M  V30 35 C 0.7651 0.5519 2.5586 0
M  V30 36 C 0.6955 0.6250 1.9097 0
M  V30 37 C 1.2438 0.6134 1.5470 0
M  V30 38 O 1.6478 0.2017 1.2873 0
M  V30 39 C 2.1288 -0.1504 1.0689 0
M  V30 40 C 2.4958 -0.4564 1.5037 0
M  V30 41 C 2.7276 -0.6870 2.0345 0
M  V30 42 H 0.9646 1.0990 2.7968 0
M  V30 43 H 0.5144 0.8677 2.9209 0
M  V30 44 H 0.8001 1.1771 1.9890 0
M  V30 45 H 1.5771 1.0945 1.6772 0
M  V30 46 H 1.4310 1.1538 1.3478 0
M  V30 47 H 2.4782 0.3074 1.0321 0
M  V30 48 H 2.6054 -0.9775 1.4121 0
M  V30 49 H 3.0274 -0.1704 1.4679 0
M  V30 50 H 3.0767 -1.1502 1.9797 0
M  V30 51 H 3.2984 -0.4825 2.0970 0
M  V30 52 C -0.5255 -0.7322 -1.3418 0
M  V30 53 N -0.8577 -0.3158 -1.0486 0
M  V30 54 C -1.1955 -0.2047 -0.5515 0
M  V30 55 H -0.9223 -0.8174 -1.7448 0
M  V30 56 H -0.8449 -1.2555 -1.3127 0
M  V30 57 H -1.0912 0.0057 -1.4949 0
M  V30 58 H -1.5450 -0.7120 -0.4686 0
M  V30 59 H -1.6843 -0.2754 -0.8293 0
M  V30 60 C -0.9054 0.4877 1.0158 0
M  V30 61 N -0.4250 0.5708 1.4045 0
M  V30 62 C 0.1091 0.7419 1.6751 0
M  V30 63 H -1.1536 0.0005 1.3175 0
M  V30 64 H -1.2151 0.5132 1.4311 0
M  V30 65 H -0.6847 0.3246 1.8744 0
M  V30 66 H 0.1317 1.3414 1.6457 0
M  V30 67 H -0.1162 1.0400 2.0672 0
M  V30 68 C 1.0084 -1.4817 -3.9142 0
M  V30 69 N 1.3009 -1.8317 -4.2920 0
M  V30 70 C 1.2039 -2.3925 -4.4720 0
M  V30 71 H 0.7120 -1.1780 -4.3408 0
M  V30 72 H 1.3051 -1.0655 -4.1702 0
M  V30 73 H 1.6943 -1.6234 -4.6515 0
M  V30 74 H 0.9929 -2.4984 -5.0000 0
M  V30 75 H 1.6117 -2.6386 -4.7723 0
M  V30 76 C -3.3371 1.4599 0.6557 0
M  V30 77 C -3.8479 1.6703 0.9216 0
M  V30 78 S -4.0982 2.1932 0.8564 0
M  V30 79 C -4.1826 2.7508 0.7044 0
M  V30 80 C -3.6623 2.9975 0.4904 0
M  V30 81 H -3.6814 1.1852 0.2654 0
M  V30 82 H -3.5762 1.0371 0.9331 0
M  V30 83 H -4.0830 1.5543 1.4458 0
M  V30 84 H -4.3477 1.3581 0.8654 0
M  V30 85 H -4.5139 3.0201 1.0819 0
M  V30 86 H -4.6963 2.8523 0.4646 0
M  V30 87 H -3.8844 3.3429 0.0777 0
M  V30 88 H -3.6722 3.5054 0.7690 0
M  V30 89 C 1.1662 -1.0635 -1.3624 0
M  V30 90 C 1.6464 -1.0947 -0.9549 0
M  V30 91 S 1.9418 -0.8492 -0.5006 0
M  V30 92 C 2.2699 -0.6447 -0.0516 0
M  V30 93 C 2.2831 -0.2693 0.4506 0
M  V30 94 H 1.5508 -0.7698 -1.6394 0
M  V30 95 H 1.1544 -1.6360 -1.3035 0
M  V30 96 H 2.1480 -1.1644 -1.2227 0
M  V30 97 H 1.8040 -1.6703 -0.8743 0
M  V30 98 H 2.6376 -1.0974 -0.0258 0
M  V30 99 H 2.7866 -0.5060 -0.3319 0
M  V30 100 H 2.5955 0.2191 0.2238 0
M  V30 101 H 2.8372 -0.1607 0.3599 0
M  V30 102 C 0.8827 0.2131 3.0800 0
M  V30 103 C 1.2959 -0.1041 3.4047 0
M  V30 104 S 1.7673 -0.4403 3.2656 0
M  V30 105 C 2.2473 -0.7472 3.0839 0
M  V30 106 C 2.6451 -0.8467 2.6208 0
M  V30 107 H 0.8265 0.5692 3.5540 0
M  V30 108 H 0.4814 -0.0295 3.4243 0
M  V30 109 H 1.0820 -0.4024 3.8701 0
M  V30 110 H 1.4542 0.1649 3.9120 0
M  V30 111 H 2.2052 -1.2456 3.4021 0
M  V30 112 H 2.5871 -0.6553 3.5389 0
M  V30 113 H 2.8367 -1.3951 2.7595 0
M  V30 114 H 3.1795 -0.7942 2.8765 0
M  V30 END ATOM
M  V30 BEGIN BOND
M  V30 1 1 1 2
M  V30 2 1 2 3
M  V30 3 1 3 4
M  V30 4 1 4 5
M  V30 5 1 5 6
M  V30 6 1 6 7
M  V30 7 1 1 8
M  V30 8 1 1 9
M  V30 9 1 2 10
M  V30 10 1 3 11
M  V30 11 1 3 12
M  V30 12 1 5 13
M  V30 13 1 6 14
M  V30 14 1 6 15
M  V30 15 1 7 16
M  V30 16 1 7 17
M  V30 17 1 18 19
M  V30 18 1 19 20
M  V30 19 1 20 21
M  V30 20 1 21 22
M  V30 21 1 22 23
M  V30 22 1 23 24
M  V30 23 1 18 25
M  V30 24 1 18 26
M  V30 25 1 19 27
M  V30 26 1 20 28
M  V30 27 1 20 29
M  V30 28 1 22 30
M  V30 29 1 23 31
M  V30 30 1 23 32
M  V30 31 1 24 33
M  V30 32 1 24 34
M  V30 33 1 35 36
M  V30 34 1 36 37
M  V30 35 1 37 38
M  V30 36 1 38 39
M  V30 37 1 39 40
M  V30 38 1 40 41
M  V30 39 1 35 42
M  V30 40 1 35 43
M  V30 41 1 36 44
M  V30 42 1 37 45
M  V30 43 1 37 46
M  V30 44 1 39 47
M  V30 45 1 40 48
M  V30 46 1 40 49
M  V30 47 1 41 50
M  V30 48 1 41 51
M  V30 49 1 52 53
M  V30 50 1 53 54
M  V30 51 1 52 55
M  V30 52 1 52 56
M  V30 53 1 53 57
M  V30 54 1 54 58
M  V30 55 1 54 59
M  V30 56 1 60 61
M  V30 57 1 61 62
M  V30 58 1 60 63
M  V30 59 1 60 64
M  V30 60 1 61 65
M  V30 61 1 62 66
M  V30 62 1 62 67
M  V30 63 1 68 69
M  V30 64 1 69 70
M  V30 65 1 68 71
M  V30 66 1 68 72
M  V30 67 1 69 73
M  V30 68 1 70 74
M  V30 69 1 70 75
M  V30 70 1 76 77
M  V30 71 1 77 78
M  V30 72 1 78 79
M  V30 73 1 79 80
M  V30 74 1 76 81
M  V30 75 1 76 82
M  V30 76 1 77 83
M  V30 77 1 77 84
M  V30 78 1 79 85
M  V30 79 1 79 86
M  V30 80 1 80 87
M  V30 81 1 80 88
M  V30 82 1 89 90
M  V30 83 1 90 91
M  V30 84 1 91 92
M  V30 85 1 92 93
M  V30 86 1 89 94
M  V30 87 1 89 95
M  V30 88 1 90 96
M  V30 89 1 90 97
M  V30 90 1 92 98
M  V30 91 1 92 99
M  V30 92 1 93 100
M  V30 93 1 93 101
M  V30 94 1 102 103
M  V30 95 1 103 104
M  V30 96 1 104 105
M  V30 97 1 105 106
M  V30 98 1 102 107
M  V30 99 1 102 108
M  V30 100 1 103 109
M  V30 101 1 103 110
M  V30 102 1 105 111
M  V30 103 1 105 112
M  V30 104 1 106 113
M  V30 105 1 106 114
M  V30 106 1 1 52
M  V30 107 1 2 89
M  V30 108 1 5 68
M  V30 109 1 7 70
M  V30 110 1 18 54
M  V30 111 1 19 60
M  V30 112 1 22 76
M  V30 113 1 24 80
M  V30 114 1 35 102
M  V30 115 1 36 62
M  V30 116 1 39 93
M  V30 117 1 41 106
M  V30 END BOND
M  V30 END CTAB
M  END

$$$$
