
     RDKit          3D

  0  0  0  0  0  0  0  0  0  0999 V3000
M  V30 BEGIN CTAB
M  V30 COUNTS 114 117 0 0 0
M  V30 BEGIN ATOM
M  V30 1 C -1.0020 -2.2770 -1.9055 0
M  V30 2 C -0.8256 -1.1993 -1.3505 0
M  V30 3 C -1.1803 -0.8845 -0.4593 0
M  V30 4 O -1.2274 -0.6761 0.5976 0
M  V30 5 C -1.2761 -0.4763 1.6589 0
M  V30 6 C -1.1996 0.3134 2.2893 0
M  V30 7 C -1.4211 1.2331 2.5931 0
M  V30 8 H -1.1825 -2.3433 -2.3929 0
M  V30 9 H -1.3504 -2.4626 -2.2383 0
M  V30 10 H -1.0919 -1.1549 -1.7465 0
M  V30 11 H -1.5613 -0.8867 -0.6813 0
M  V30 12 H -1.3805 -0.7159 -0.7963 0
M  V30 13 H -1.0638 -0.6230 1.9344 0
M  V30 14 H -1.1816 0.2550 2.7281 0
M  V30 15 H -0.9184 0.2676 2.6370 0
M  V30 16 H -1.4561 1.3044 3.0720 0
M  V30 17 H -1.7249 1.3363 2.9781 0
M  V30 18 C 1.7763 2.4406 1.1685 0
M  V30 19 C 1.3743 2.5739 0.4174 0
M  V30 20 C 1.8521 2.4244 -0.0756 0
M  V30 21 O 1.8491 2.8155 -0.6757 0
M  V30 22 C 1.6770 3.2144 -1.2108 0
M  V30 23 C 1.9412 3.7625 -1.1172 0
M  V30 24 C 1.5236 4.3005 -0.5815 0
M  V30 25 H 1.8392 2.5450 1.6652 0
M  V30 26 H 1.8828 2.7598 1.5541 0
M  V30 27 H 1.5106 2.9080 0.6482 0
M  V30 28 H 2.1677 2.1151 -0.0367 0
M  V30 29 H 2.2999 2.3070 -0.0550 0
M  V30 30 H 1.9372 3.2725 -1.6160 0
M  V30 31 H 2.4110 3.7995 -1.3238 0
M  V30 32 H 2.2507 3.9441 -1.4857 0
M  V30 33 H 1.8268 4.5862 -0.8297 0
M  V30 34 H 1.7253 4.7605 -0.6480 0
M  V30 35 C -1.3898 -2.5578 -0.0989 0
M  V30 36 C -0.3387 -2.5390 -0.6227 0
M  V30 37 C 0.2880 -2.7837 -0.3326 0
M  V30 38 O 0.7330 -2.7292 -0.6683 0
M  V30 39 C 0.9932 -2.6151 -1.1114 0
M  V30 40 C 1.0308 -3.3441 -0.6829 0
M  V30 41 C 0.5783 -4.0462 -0.5976 0
M  V30 42 H -1.7515 -2.8499 -0.1839 0
M  V30 43 H -1.6094 -2.9391 0.0586 0
M  V30 44 H -0.5215 -2.9068 -0.6330 0
M  V30 45 H 0.4421 -2.9412 0.0854 0
M  V30 46 H 0.4763 -3.1233 -0.0854 0
M  V30 47 H 1.2675 -2.6277 -1.3147 0
M  V30 48 H 1.3644 -3.5155 -0.3743 0
M  V30 49 H 1.4770 -3.4939 -0.6216 0
M  V30 50 H 0.6312 -4.1519 -0.1001 0
M  V30 51 H 0.4277 -4.2707 -0.2226 0
M  V30 52 C -0.8618 -3.3508 -2.0306 0
M  V30 53 N -0.4300 -4.1190 -1.6950 0
M  V30 54 C 0.1247 -4.4860 -1.1441 0
M  V30 55 H -0.9852 -3.6388 -2.4698 0
M  V30 56 H -1.1318 -3.7287 -2.2831 0
M  V30 57 H -0.5194 -4.5925 -1.9224 0
M  V30 58 H 0.2691 -4.9755 -1.2613 0
M  V30 59 H 0.1303 -5.0000 -1.0433 0
M  V30 60 C 0.6972 2.7735 -0.1403 0
M  V30 61 N 0.6363 3.0376 -0.8766 0
M  V30 62 C 1.0319 3.2510 -1.4204 0
M  V30 63 H 0.3423 2.9792 -0.2653 0
M  V30 64 H 0.3442 2.9519 0.0160 0
M  V30 65 H 0.2746 3.2194 -1.1385 0
M  V30 66 H 0.9645 3.3862 -1.9026 0
M  V30 67 H 0.9858 3.6213 -1.7799 0
M  V30 68 C 0.4065 -2.3320 -1.3825 0
M  V30 69 N 0.9377 -2.1122 -1.9471 0
M  V30 70 C 1.0113 -2.0748 -1.7830 0
M  V30 71 H 0.8160 -2.3592 -1.5961 0
M  V30 72 H 0.5618 -2.5232 -1.7939 0
M  V30 73 H 1.3430 -2.0298 -2.3750 0
M  V30 74 H 1.0067 -1.7132 -2.1728 0
M  V30 75 H 1.0424 -1.9504 -2.3081 0
M  V30 76 C -0.1543 -0.3338 -1.2533 0
M  V30 77 C 0.5874 0.3104 -0.7583 0
M  V30 78 S 1.2111 0.7924 -0.0275 0
M  V30 79 C 1.8143 1.2421 0.6984 0
M  V30 80 C 2.0978 1.8468 1.2590 0
M  V30 81 H -0.1063 -0.1988 -1.6918 0
M  V30 82 H -0.3679 -0.1307 -1.6081 0
M  V30 83 H 0.6318 0.5267 -1.0940 0
M  V30 84 H 0.9117 0.3571 -0.9956 0
M  V30 85 H 2.2712 1.2187 0.7958 0
M  V30 86 H 2.1318 1.0920 1.0033 0
M  V30 87 H 2.5524 1.9352 1.5242 0
M  V30 88 H 2.3710 1.9241 1.7121 0
M  V30 89 C -1.7692 -1.0145 2.2217 0
M  V30 90 C -2.4298 -1.4623 2.3171 0
M  V30 91 S -2.7111 -1.7882 1.7587 0
M  V30 92 C -2.8255 -2.1031 1.1102 0
M  V30 93 C -2.2837 -2.3945 0.4523 0
M  V30 94 H -1.6218 -1.2085 2.6176 0
M  V30 95 H -1.9004 -1.0841 2.6643 0
M  V30 96 H -2.6366 -1.6801 2.7314 0
M  V30 97 H -2.8207 -1.5066 2.6501 0
M  V30 98 H -3.2557 -2.2772 1.2999 0
M  V30 99 H -3.3296 -2.0788 1.1422 0
M  V30 100 H -2.6373 -2.7329 0.5465 0
M  V30 101 H -2.7476 -2.5071 0.3804 0
M  V30 102 C -1.4340 2.1158 2.3455 0
M  V30 103 C -1.0944 2.9236 1.9470 0
M  V30 104 S -0.5310 3.5718 1.3847 0
M  V30 105 C 0.0758 4.2095 0.8127 0
M  V30 106 C 0.8211 4.4609 0.1128 0
M  V30 107 H -1.7767 2.1603 2.5921 0
M  V30 108 H -1.8367 2.0906 2.3111 0
M  V30 109 H -1.3333 2.9465 2.2485 0
M  V30 110 H -1.3887 3.1993 2.1144 0
M  V30 111 H 0.0425 4.6621 1.0561 0
M  V30 112 H -0.1414 4.6707 0.8700 0
M  V30 113 H 0.9508 4.9439 0.2225 0
M  V30 114 H 0.7640 4.9620 0.0322 0
M  V30 END ATOM
M  V30 BEGIN BOND
M  V30 1 1 1 2
M  V30 2 1 2 3
M  V30 3 1 3 4
M  V30 4 1 4 5
M  V30 5 1 5 6
M  V30 6 1 6 7
M  V30 7 1 1 8
M  V30 8 1 1 9
M  V30 9 1 2 10
M  V30 10 1 3 11
M  V30 11 1 3 12
M  V30 12 1 5 13
M  V30 13 1 6 14
M  V30 14 1 6 15
M  V30 15 1 7 16
M  V30 16 1 7 17
M  V30 17 1 18 19
M  V30 18 1 19 20
M  V30 19 1 20 21
M  V30 20 1 21 22
M  V30 21 1 22 23
M  V30 22 1 23 24
M  V30 23 1 18 25
M  V30 24 1 18 26
M  V30 25 1 19 27
M  V30 26 1 20 28
M  V30 27 1 20 29
M  V30 28 1 22 30
M  V30 29 1 23 31
M  V30 30 1 23 32
M  V30 31 1 24 33
M  V30 32 1 24 34
M  V30 33 1 35 36
M  V30 34 1 36 37
M  V30 35 1 37 38
M  V30 36 1 38 39
M  V30 37 1 39 40
M  V30 38 1 40 41
M  V30 39 1 35 42
M  V30 40 1 35 43
M  V30 41 1 36 44
M  V30 42 1 37 45
M  V30 43 1 37 46
M  V30 44 1 39 47
M  V30 45 1 40 48
M  V30 46 1 40 49
M  V30 47 1 41 50
M  V30 48 1 41 51
M  V30 49 1 52 53
M  V30 50 1 53 54
M  V30 51 1 52 55
M  V30 52 1 52 56
M  V30 53 1 53 57
M  V30 54 1 54 58
M  V30 55 1 54 59
M  V30 56 1 60 61
M  V30 57 1 61 62
M  V30 58 1 60 63
M  V30 59 1 60 64
M  V30 60 1 61 65
M  V30 61 1 62 66
M  V30 62 1 62 67
M  V30 63 1 68 69
M  V30 64 1 69 70
M  V30 65 1 68 71
M  V30 66 1 68 72
M  V30 67 1 69 73
M  V30 68 1 70 74
M  V30 69 1 70 75
M  V30 70 1 76 77
M  V30 71 1 77 78
M  V30 72 1 78 79
M  V30 73 1 79 80
M  V30 74 1 76 81
M  V30 75 1 76 82
M  V30 76 1 77 83
M  V30 77 1 77 84
M  V30 78 1 79 85
M  V30 79 1 79 86
M  V30 80 1 80 87
M  V30 81 1 80 88
M  V30 82 1 89 90
M  V30 83 1 90 91
M  V30 84 1 91 92
M  V30 85 1 92 93
M  V30 86 1 89 94
M  V30 87 1 89 95
M  V30 88 1 90 96
M  V30 89 1 90 97
M  V30 90 1 92 98
M  V30 91 1 92 99
M  V30 92 1 93 100
M  V30 93 1 93 101
M  V30 94 1 102 103
M  V30 95 1 103 104
M  V30 96 1 104 105
M  V30 97 1 105 106
M  V30 98 1 102 107
M  V30 99 1 102 108
M  V30 100 1 103 109
M  V30 101 1 103 110
M  V30 102 1 105 111
M  V30 103 1 105 112
M  V30 104 1 106 113
M  V30 105 1 106 114
M  V30 106 1 1 52
M  V30 107 1 2 76
M  V30 108 1 5 89
M  V30 109 1 7 102
M  V30 110 1 18 80
M  V30 111 1 19 60
M  V30 112 1 22 62
M  V30 113 1 24 106
M  V30 114 1 35 93
M  V30 115 1 36 68
M  V30 116 1 39 70
M  V30 117 1 41 54
M  V30 END BOND
M  V30 END CTAB
M  END

$$$$
