
     RDKit          3D

  0  0  0  0  0  0  0  0  0  0999 V3000
M  V30 BEGIN CTAB
M  V30 COUNTS 114 117 0 0 0
M  V30 BEGIN ATOM
M  V30 1 C 0.1319 0.1453 0.2207 0
M  V30 2 C 0.2894 0.1033 0.1228 0
M  V30 3 C 0.4438 0.0312 0.1085 0
M  V30 4 O 0.5426 0.0837 0.0714 0
M  V30 5 C 0.5896 0.1411 0.0113 0
M  V30 6 C 0.7342 0.0870 -0.1126 0
M  V30 7 C 0.7890 0.0229 -0.2739 0
M  V30 8 H 0.1850 0.1259 0.2923 0
M  V30 9 H 0.1474 0.0895 0.2794 0
M  V30 10 H 0.3509 0.0726 0.1399 0
M  V30 11 H 0.5185 -0.0214 0.1053 0
M  V30 12 H 0.4986 -0.0367 0.1454 0
M  V30 13 H 0.6729 0.1733 0.0382 0
M  V30 14 H 0.8152 0.0763 -0.0737 0
M  V30 15 H 0.8204 0.1111 -0.1096 0
M  V30 16 H 0.8670 0.0613 -0.3103 0
M  V30 17 H 0.8821 0.0181 -0.2941 0
M  V30 18 C -0.0158 -0.3415 0.3567 0
M  V30 19 C -0.0375 -0.4718 0.2165 0
M  V30 20 C -0.0428 -0.4823 0.0829 0
M  V30 21 O 0.0426 -0.4486 -0.0327 0
M  V30 22 C 0.1373 -0.4194 -0.1396 0
M  V30 23 C 0.2946 -0.3689 -0.1743 0
M  V30 24 C 0.4299 -0.4341 -0.1907 0
M  V30 25 H -0.0099 -0.3925 0.4332 0
M  V30 26 H -0.0580 -0.3832 0.4268 0
M  V30 27 H -0.0611 -0.5397 0.2747 0
M  V30 28 H -0.1180 -0.5139 0.0636 0
M  V30 29 H -0.0951 -0.5510 0.1012 0
M  V30 30 H 0.1240 -0.4011 -0.2160 0
M  V30 31 H 0.3249 -0.3229 -0.2293 0
M  V30 32 H 0.3333 -0.2985 -0.1807 0
M  V30 33 H 0.4739 -0.4312 -0.1171 0
M  V30 34 H 0.4904 -0.4692 -0.1434 0
M  V30 35 C -0.6766 0.1073 0.1027 0
M  V30 36 C -0.8030 0.2171 0.0554 0
M  V30 37 C -0.9030 0.2384 -0.0252 0
M  V30 38 O -0.8422 0.3110 -0.1041 0
M  V30 39 C -0.7613 0.3989 -0.1578 0
M  V30 40 C -0.5950 0.4034 -0.1345 0
M  V30 41 C -0.4576 0.4359 -0.0256 0
M  V30 42 H -0.7538 0.0629 0.1062 0
M  V30 43 H -0.7392 0.0739 0.1556 0
M  V30 44 H -0.8843 0.2033 0.0940 0
M  V30 45 H -0.9901 0.2022 -0.0199 0
M  V30 46 H -1.0000 0.2446 -0.0400 0
M  V30 47 H -0.8145 0.4167 -0.2307 0
M  V30 48 H -0.6006 0.4307 -0.2122 0
M  V30 49 H -0.6004 0.3798 -0.2130 0
M  V30 50 H -0.4574 0.5016 -0.0724 0
M  V30 51 H -0.4874 0.5165 -0.0249 0
M  V30 52 C -0.0338 0.2460 0.2567 0
M  V30 53 N -0.1858 0.3489 0.2019 0
M  V30 54 C -0.3279 0.4236 0.1049 0
M  V30 55 H -0.0739 0.2631 0.3312 0
M  V30 56 H -0.0290 0.2704 0.3431 0
M  V30 57 H -0.2057 0.4088 0.2603 0
M  V30 58 H -0.3650 0.4907 0.1480 0
M  V30 59 H -0.3291 0.5081 0.1148 0
M  V30 60 C -0.0322 -0.5955 0.1147 0
M  V30 61 N -0.0001 -0.5935 -0.0309 0
M  V30 62 C 0.0510 -0.5241 -0.1458 0
M  V30 63 H -0.0271 -0.6885 0.1482 0
M  V30 64 H -0.0714 -0.6866 0.1303 0
M  V30 65 H -0.0185 -0.6844 -0.0542 0
M  V30 66 H 0.0150 -0.5502 -0.2238 0
M  V30 67 H 0.0454 -0.5889 -0.2067 0
M  V30 68 C -0.8060 0.3573 0.0345 0
M  V30 69 N -0.8277 0.4509 -0.0564 0
M  V30 70 C -0.8540 0.4768 -0.1608 0
M  V30 71 H -0.8582 0.4011 0.0811 0
M  V30 72 H -0.7936 0.4175 0.0810 0
M  V30 73 H -0.8427 0.5328 -0.0585 0
M  V30 74 H -0.9359 0.5271 -0.1861 0
M  V30 75 H -0.9033 0.5304 -0.2226 0
M  V30 76 C 0.2740 0.1885 0.0169 0
M  V30 77 C 0.2004 0.2311 0.0846 0
M  V30 78 S 0.1514 0.1301 0.2294 0
M  V30 79 C 0.0974 0.0015 0.3707 0
M  V30 80 C 0.0348 -0.1709 0.4157 0
M  V30 81 H 0.3177 0.2324 -0.0571 0
M  V30 82 H 0.2776 0.2156 -0.0730 0
M  V30 83 H 0.2067 0.3288 0.0448 0
M  V30 84 H 0.2059 0.3018 0.0112 0
M  V30 85 H 0.0819 0.0394 0.4544 0
M  V30 86 H 0.1290 0.0273 0.4534 0
M  V30 87 H 0.0051 -0.1832 0.5028 0
M  V30 88 H 0.0535 -0.1883 0.5047 0
M  V30 89 C 0.4094 0.2035 0.0848 0
M  V30 90 C 0.1794 0.2000 0.1138 0
M  V30 91 S -0.0509 0.1354 0.1099 0
M  V30 92 C -0.2765 0.0774 0.1105 0
M  V30 93 C -0.4899 0.0592 0.1146 0
M  V30 94 H 0.4635 0.2720 0.1321 0
M  V30 95 H 0.4875 0.2561 0.0997 0
M  V30 96 H 0.2127 0.2690 0.1671 0
M  V30 97 H 0.1749 0.2908 0.1329 0
M  V30 98 H -0.3233 0.0296 0.1407 0
M  V30 99 H -0.3307 0.0531 0.0771 0
M  V30 100 H -0.5464 0.0200 0.1614 0
M  V30 101 H -0.5451 -0.0022 0.1073 0
M  V30 102 C 0.7384 -0.0629 -0.4128 0
M  V30 103 C 0.6249 -0.1625 -0.4814 0
M  V30 104 S 0.5610 -0.2932 -0.4566 0
M  V30 105 C 0.5143 -0.4220 -0.4112 0
M  V30 106 C 0.5013 -0.4837 -0.2965 0
M  V30 107 H 0.8015 -0.0791 -0.4748 0
M  V30 108 H 0.8054 -0.0331 -0.4724 0
M  V30 109 H 0.6344 -0.1710 -0.5659 0
M  V30 110 H 0.5976 -0.1380 -0.5596 0
M  V30 111 H 0.4775 -0.4826 -0.4540 0
M  V30 112 H 0.5400 -0.4765 -0.4744 0
M  V30 113 H 0.5572 -0.5515 -0.3242 0
M  V30 114 H 0.5307 -0.5626 -0.2785 0
M  V30 END ATOM
M  V30 BEGIN BOND
M  V30 1 1 1 2
M  V30 2 1 2 3
M  V30 3 1 3 4
M  V30 4 1 4 5
M  V30 5 1 5 6
M  V30 6 1 6 7
M  V30 7 1 1 8
M  V30 8 1 1 9
M  V30 9 1 2 10
M  V30 10 1 3 11
M  V30 11 1 3 12
M  V30 12 1 5 13
M  V30 13 1 6 14
M  V30 14 1 6 15
M  V30 15 1 7 16
M  V30 16 1 7 17
M  V30 17 1 18 19
M  V30 18 1 19 20
M  V30 19 1 20 21
M  V30 20 1 21 22
M  V30 21 1 22 23
M  V30 22 1 23 24
M  V30 23 1 18 25
M  V30 24 1 18 26
M  V30 25 1 19 27
M  V30 26 1 20 28
M  V30 27 1 20 29
M  V30 28 1 22 30
M  V30 29 1 23 31
M  V30 30 1 23 32
M  V30 31 1 24 33
M  V30 32 1 24 34
M  V30 33 1 35 36
M  V30 34 1 36 37
M  V30 35 1 37 38
M  V30 36 1 38 39
M  V30 37 1 39 40
M  V30 38 1 40 41
M  V30 39 1 35 42
M  V30 40 1 35 43
M  V30 41 1 36 44
M  V30 42 1 37 45
M  V30 43 1 37 46
M  V30 44 1 39 47
M  V30 45 1 40 48
M  V30 46 1 40 49
M  V30 47 1 41 50
M  V30 48 1 41 51
M  V30 49 1 52 53
M  V30 50 1 53 54
M  V30 51 1 52 55
M  V30 52 1 52 56
M  V30 53 1 53 57
M  V30 54 1 54 58
M  V30 55 1 54 59
M  V30 56 1 60 61
M  V30 57 1 61 62
M  V30 58 1 60 63
M  V30 59 1 60 64
M  V30 60 1 61 65
M  V30 61 1 62 66
M  V30 62 1 62 67
M  V30 63 1 68 69
M  V30 64 1 69 70
M  V30 65 1 68 71
M  V30 66 1 68 72
M  V30 67 1 69 73
M  V30 68 1 70 74
M  V30 69 1 70 75
M  V30 70 1 76 77
M  V30 71 1 77 78
M  V30 72 1 78 79
M  V30 73 1 79 80
M  V30 74 1 76 81
M  V30 75 1 76 82
M  V30 76 1 77 83
M  V30 77 1 77 84
M  V30 78 1 79 85
M  V30 79 1 79 86
M  V30 80 1 80 87
M  V30 81 1 80 88
M  V30 82 1 89 90
M  V30 83 1 90 91
M  V30 84 1 91 92
M  V30 85 1 92 93
M  V30 86 1 89 94
M  V30 87 1 89 95
M  V30 88 1 90 96
M  V30 89 1 90 97
M  V30 90 1 92 98
M  V30 91 1 92 99
M  V30 92 1 93 100
M  V30 93 1 93 101
M  V30 94 1 102 103
M  V30 95 1 103 104
M  V30 96 1 104 105
M  V30 97 1 105 106
M  V30 98 1 102 107
M  V30 99 1 102 108
M  V30 100 1 103 109
M  V30 101 1 103 110
M  V30 102 1 105 111
M  V30 103 1 105 112
M  V30 104 1 106 113
M  V30 105 1 106 114
M  V30 106 1 1 52
M  V30 107 1 2 76
M  V30 108 1 5 89
M  V30 109 1 7 102
M  V30 110 1 18 80
M  V30 111 1 19 60
M  V30 112 1 22 62
M  V30 113 1 24 106
M  V30 114 1 35 93
M  V30 115 1 36 68
M  V30 116 1 39 70
M  V30 117 1 41 54
M  V30 END BOND
M  V30 END CTAB
M  END

$$$$
