
     RDKit          3D

  0  0  0  0  0  0  0  0  0  0999 V3000
M  V30 BEGIN CTAB
M  V30 COUNTS 114 117 0 0 0
M  V30 BEGIN ATOM
M  V30 1 C 0.0714 0.2852 0.4421 0
M  V30 2 C -0.1411 0.1521 0.4433 0
M  V30 3 C -0.3415 0.0684 0.3073 0
M  V30 4 O -0.5046 0.0272 0.1292 0
M  V30 5 C -0.6617 0.0019 -0.0557 0
M  V30 6 C -0.7747 0.1455 -0.1121 0
M  V30 7 C -0.7708 0.3057 -0.1902 0
M  V30 8 H 0.0841 0.3040 0.5317 0
M  V30 9 H 0.1142 0.2551 0.5177 0
M  V30 10 H -0.1948 0.1193 0.4996 0
M  V30 11 H -0.3974 0.0097 0.3493 0
M  V30 12 H -0.4169 0.0645 0.3601 0
M  V30 13 H -0.7415 -0.0284 -0.0263 0
M  V30 14 H -0.8733 0.1483 -0.1296 0
M  V30 15 H -0.8658 0.1422 -0.0746 0
M  V30 16 H -0.8600 0.3383 -0.2298 0
M  V30 17 H -0.8639 0.3395 -0.1736 0
M  V30 18 C 0.5789 -0.6048 0.2282 0
M  V30 19 C 0.5074 -0.7253 0.0930 0
M  V30 20 C 0.4231 -0.7112 -0.0442 0
M  V30 21 O 0.2811 -0.7314 -0.1395 0
M  V30 22 C 0.1434 -0.7785 -0.2337 0
M  V30 23 C -0.0349 -0.7283 -0.3475 0
M  V30 24 C -0.1859 -0.6654 -0.4792 0
M  V30 25 H 0.6512 -0.6543 0.2715 0
M  V30 26 H 0.5981 -0.6522 0.3083 0
M  V30 27 H 0.5721 -0.7876 0.1259 0
M  V30 28 H 0.5048 -0.7214 -0.0598 0
M  V30 29 H 0.4772 -0.7024 -0.1067 0
M  V30 30 H 0.1419 -0.8289 -0.2870 0
M  V30 31 H -0.0999 -0.7642 -0.3500 0
M  V30 32 H -0.0587 -0.7907 -0.3211 0
M  V30 33 H -0.1838 -0.7296 -0.5525 0
M  V30 34 H -0.2308 -0.7336 -0.5118 0
M  V30 35 C 0.1465 0.6332 -0.3228 0
M  V30 36 C -0.0004 0.4886 -0.2975 0
M  V30 37 C 0.1341 0.3378 -0.2216 0
M  V30 38 O 0.2565 0.2197 -0.0852 0
M  V30 39 C 0.3760 0.1199 0.0668 0
M  V30 40 C 0.3036 0.2637 0.1598 0
M  V30 41 C 0.1746 0.3934 0.2576 0
M  V30 42 H 0.1652 0.6799 -0.4093 0
M  V30 43 H 0.1408 0.7173 -0.3738 0
M  V30 44 H -0.0127 0.5358 -0.3732 0
M  V30 45 H 0.1355 0.2995 -0.2962 0
M  V30 46 H 0.1761 0.3529 -0.2963 0
M  V30 47 H 0.4536 0.1010 0.0356 0
M  V30 48 H 0.3743 0.2728 0.1182 0
M  V30 49 H 0.3859 0.2721 0.1848 0
M  V30 50 H 0.1634 0.4726 0.2662 0
M  V30 51 H 0.2091 0.4562 0.2262 0
M  V30 52 C -0.6460 0.4243 -0.2585 0
M  V30 53 N -0.4523 0.4775 -0.2969 0
M  V30 54 C -0.2361 0.5024 -0.3180 0
M  V30 55 H -0.7132 0.4705 -0.3163 0
M  V30 56 H -0.7166 0.4931 -0.2645 0
M  V30 57 H -0.5037 0.5415 -0.3430 0
M  V30 58 H -0.2732 0.5810 -0.3531 0
M  V30 59 H -0.2646 0.5452 -0.3983 0
M  V30 60 C 0.6054 -0.4293 0.2824 0
M  V30 61 N 0.5788 -0.2428 0.2311 0
M  V30 62 C 0.5094 -0.0592 0.1507 0
M  V30 63 H 0.6812 -0.4542 0.3387 0
M  V30 64 H 0.6357 -0.4478 0.3736 0
M  V30 65 H 0.6622 -0.2561 0.2699 0
M  V30 66 H 0.5914 -0.0612 0.1899 0
M  V30 67 H 0.5968 -0.0752 0.1318 0
M  V30 68 C 0.4704 -0.8706 0.0252 0
M  V30 69 N 0.3669 -0.9211 -0.0807 0
M  V30 70 C 0.2443 -0.9071 -0.1757 0
M  V30 71 H 0.5380 -0.9484 0.0217 0
M  V30 72 H 0.5012 -0.9642 0.0609 0
M  V30 73 H 0.3929 -0.9946 -0.1039 0
M  V30 74 H 0.2611 -1.0000 -0.2156 0
M  V30 75 H 0.2089 -0.9865 -0.1708 0
M  V30 76 C -0.7033 -0.1263 -0.2291 0
M  V30 77 C -0.6786 -0.2366 -0.3950 0
M  V30 78 S -0.5691 -0.3286 -0.5054 0
M  V30 79 C -0.4497 -0.4261 -0.5924 0
M  V30 80 C -0.3245 -0.5601 -0.5732 0
M  V30 81 H -0.7739 -0.1348 -0.2765 0
M  V30 82 H -0.7900 -0.1697 -0.2250 0
M  V30 83 H -0.7506 -0.2429 -0.4618 0
M  V30 84 H -0.7526 -0.2887 -0.4307 0
M  V30 85 H -0.4817 -0.4263 -0.6795 0
M  V30 86 H -0.4444 -0.3825 -0.6745 0
M  V30 87 H -0.3300 -0.5964 -0.6620 0
M  V30 88 H -0.3751 -0.6139 -0.6306 0
M  V30 89 C 0.2559 0.4421 0.3796 0
M  V30 90 C 0.3787 0.5758 0.2396 0
M  V30 91 S 0.4094 0.6522 0.0565 0
M  V30 92 C 0.4089 0.7221 -0.1223 0
M  V30 93 C 0.3024 0.7246 -0.2657 0
M  V30 94 H 0.3005 0.5076 0.4498 0
M  V30 95 H 0.3343 0.4635 0.4438 0
M  V30 96 H 0.4712 0.6232 0.2550 0
M  V30 97 H 0.4349 0.6589 0.2738 0
M  V30 98 H 0.4910 0.7549 -0.1693 0
M  V30 99 H 0.4703 0.8030 -0.1367 0
M  V30 100 H 0.3292 0.8189 -0.3038 0
M  V30 101 H 0.3540 0.7812 -0.3360 0
M  V30 102 C -0.1346 0.1395 0.6200 0
M  V30 103 C -0.1386 0.2519 0.7170 0
M  V30 104 S -0.1009 0.3716 0.6434 0
M  V30 105 C -0.0496 0.4804 0.5489 0
M  V30 106 C 0.0452 0.4796 0.3912 0
M  V30 107 H -0.1039 0.0802 0.6951 0
M  V30 108 H -0.1451 0.0538 0.6730 0
M  V30 109 H -0.1765 0.2364 0.8142 0
M  V30 110 H -0.1542 0.2818 0.8188 0
M  V30 111 H -0.1053 0.5458 0.6090 0
M  V30 112 H -0.0548 0.5530 0.6236 0
M  V30 113 H 0.0403 0.5701 0.4246 0
M  V30 114 H -0.0074 0.5586 0.3904 0
M  V30 END ATOM
M  V30 BEGIN BOND
M  V30 1 1 1 2
M  V30 2 1 2 3
M  V30 3 1 3 4
M  V30 4 1 4 5
M  V30 5 1 5 6
M  V30 6 1 6 7
M  V30 7 1 1 8
M  V30 8 1 1 9
M  V30 9 1 2 10
M  V30 10 1 3 11
M  V30 11 1 3 12
M  V30 12 1 5 13
M  V30 13 1 6 14
M  V30 14 1 6 15
M  V30 15 1 7 16
M  V30 16 1 7 17
M  V30 17 1 18 19
M  V30 18 1 19 20
M  V30 19 1 20 21
M  V30 20 1 21 22
M  V30 21 1 22 23
M  V30 22 1 23 24
M  V30 23 1 18 25
M  V30 24 1 18 26
M  V30 25 1 19 27
M  V30 26 1 20 28
M  V30 27 1 20 29
M  V30 28 1 22 30
M  V30 29 1 23 31
M  V30 30 1 23 32
M  V30 31 1 24 33
M  V30 32 1 24 34
M  V30 33 1 35 36
M  V30 34 1 36 37
M  V30 35 1 37 38
M  V30 36 1 38 39
M  V30 37 1 39 40
M  V30 38 1 40 41
M  V30 39 1 35 42
M  V30 40 1 35 43
M  V30 41 1 36 44
M  V30 42 1 37 45
M  V30 43 1 37 46
M  V30 44 1 39 47
M  V30 45 1 40 48
M  V30 46 1 40 49
M  V30 47 1 41 50
M  V30 48 1 41 51
M  V30 49 1 52 53
M  V30 50 1 53 54
M  V30 51 1 52 55
M  V30 52 1 52 56
M  V30 53 1 53 57
M  V30 54 1 54 58
M  V30 55 1 54 59
M  V30 56 1 60 61
M  V30 57 1 61 62
M  V30 58 1 60 63
M  V30 59 1 60 64
M  V30 60 1 61 65
M  V30 61 1 62 66
M  V30 62 1 62 67
M  V30 63 1 68 69
M  V30 64 1 69 70
M  V30 65 1 68 71
M  V30 66 1 68 72
M  V30 67 1 69 73
M  V30 68 1 70 74
M  V30 69 1 70 75
M  V30 70 1 76 77
M  V30 71 1 77 78
M  V30 72 1 78 79
M  V30 73 1 79 80
M  V30 74 1 76 81
M  V30 75 1 76 82
M  V30 76 1 77 83
M  V30 77 1 77 84
M  V30 78 1 79 85
M  V30 79 1 79 86
M  V30 80 1 80 87
M  V30 81 1 80 88
M  V30 82 1 89 90
M  V30 83 1 90 91
M  V30 84 1 91 92
M  V30 85 1 92 93
M  V30 86 1 89 94
M  V30 87 1 89 95
M  V30 88 1 90 96
M  V30 89 1 90 97
M  V30 90 1 92 98
M  V30 91 1 92 99
M  V30 92 1 93 100
M  V30 93 1 93 101
M  V30 94 1 102 103
M  V30 95 1 103 104
M  V30 96 1 104 105
M  V30 97 1 105 106
M  V30 98 1 102 107
M  V30 99 1 102 108
M  V30 100 1 103 109
M  V30 101 1 103 110
M  V30 102 1 105 111
M  V30 103 1 105 112
M  V30 104 1 106 113
M  V30 105 1 106 114
M  V30 106 1 1 89
M  V30 107 1 2 102
M  V30 108 1 5 76
M  V30 109 1 7 52
M  V30 110 1 18 60
M  V30 111 1 19 68
M  V30 112 1 22 70
M  V30 113 1 24 80
M  V30 114 1 35 93
M  V30 115 1 36 54
M  V30 116 1 39 62
M  V30 117 1 41 106
M  V30 END BOND
M  V30 END CTAB
M  END

$$$$
