
     RDKit          3D

  0  0  0  0  0  0  0  0  0  0999 V3000
M  V30 BEGIN CTAB
M  V30 COUNTS 114 117 0 0 0
M  V30 BEGIN ATOM
M  V30 1 C 0.5710 0.5966 3.6810 0
M  V30 2 C 0.4671 -0.3894 3.4993 0
M  V30 3 C -0.4577 -0.8213 3.5711 0
M  V30 4 O -1.2387 -0.9962 3.0362 0
M  V30 5 C -2.0297 -1.1325 2.4532 0
M  V30 6 C -2.2107 -2.0361 2.0682 0
M  V30 7 C -2.1899 -2.7712 1.4338 0
M  V30 8 H 0.3758 0.6966 4.5534 0
M  V30 9 H 1.1269 0.7002 4.3299 0
M  V30 10 H 0.5213 -0.5552 4.2968 0
M  V30 11 H -0.5454 -1.3774 4.2631 0
M  V30 12 H -0.7933 -0.8409 4.4107 0
M  V30 13 H -2.4257 -1.3333 3.1627 0
M  V30 14 H -2.9989 -2.2758 2.3583 0
M  V30 15 H -2.4040 -2.5517 2.7678 0
M  V30 16 H -2.3876 -3.4648 1.9697 0
M  V30 17 H -3.0407 -3.0384 1.3940 0
M  V30 18 C 0.5995 2.8924 -2.7940 0
M  V30 19 C -0.3354 2.8675 -2.5124 0
M  V30 20 C -0.7665 3.1780 -1.6620 0
M  V30 21 O -1.0521 3.1060 -0.7355 0
M  V30 22 C -1.3903 3.1034 0.2081 0
M  V30 23 C -0.8502 3.5001 0.9672 0
M  V30 24 C -0.2783 3.5140 1.7600 0
M  V30 25 H 1.0569 3.6279 -2.7171 0
M  V30 26 H 0.6565 3.6212 -3.3353 0
M  V30 27 H -0.5298 3.6229 -2.8743 0
M  V30 28 H -1.3972 3.7247 -1.9510 0
M  V30 29 H -0.6629 4.0447 -1.7092 0
M  V30 30 H -1.7424 3.8146 0.0575 0
M  V30 31 H -1.2984 4.2370 1.2002 0
M  V30 32 H -0.6618 4.3185 0.8319 0
M  V30 33 H -0.5412 4.2641 2.1961 0
M  V30 34 H 0.2275 4.2518 1.7475 0
M  V30 35 C 0.4482 0.0494 -4.1086 0
M  V30 36 C 1.2591 -0.2557 -3.6647 0
M  V30 37 C 1.4508 -1.1459 -3.2415 0
M  V30 38 O 1.4538 -1.8077 -2.5242 0
M  V30 39 C 1.4846 -2.5390 -1.8325 0
M  V30 40 C 2.2868 -2.6645 -1.2194 0
M  V30 41 C 2.8213 -2.6189 -0.3995 0
M  V30 42 H 0.0814 -0.4478 -4.7226 0
M  V30 43 H 0.6283 -0.0334 -4.9965 0
M  V30 44 H 1.6400 -0.5233 -4.3893 0
M  V30 45 H 1.4284 -1.6925 -3.9271 0
M  V30 46 H 2.1632 -1.4072 -3.6798 0
M  V30 47 H 1.8196 -3.0048 -2.3910 0
M  V30 48 H 2.6461 -3.4295 -1.4755 0
M  V30 49 H 2.9959 -2.8172 -1.6832 0
M  V30 50 H 3.6730 -2.6171 -0.6644 0
M  V30 51 H 3.2599 -3.4007 -0.4192 0
M  V30 52 C 0.5887 1.5559 3.5110 0
M  V30 53 N 0.4673 2.3721 3.0378 0
M  V30 54 C 0.1700 3.0938 2.4976 0
M  V30 55 H 1.2931 1.8581 3.9546 0
M  V30 56 H 0.4005 1.9062 4.3222 0
M  V30 57 H 0.9580 2.8996 3.5708 0
M  V30 58 H -0.0254 3.6822 3.1488 0
M  V30 59 H 0.8372 3.6737 2.6601 0
M  V30 60 C -0.7361 2.3520 -3.2390 0
M  V30 61 N -0.6272 1.5405 -3.7444 0
M  V30 62 C -0.2333 0.7442 -4.1194 0
M  V30 63 H -1.5039 2.5838 -3.5886 0
M  V30 64 H -0.9539 2.9462 -3.8927 0
M  V30 65 H -1.2330 1.6838 -4.4007 0
M  V30 66 H -0.8983 0.4568 -4.6385 0
M  V30 67 H -0.2857 0.9435 -5.0000 0
M  V30 68 C 1.3413 2.3570 -3.1305 0
M  V30 69 N 1.7119 1.5039 -3.3879 0
M  V30 70 C 1.7746 0.5751 -3.6385 0
M  V30 71 H 1.6546 2.8699 -3.8062 0
M  V30 72 H 2.0836 2.8458 -3.0666 0
M  V30 73 H 2.4737 1.8189 -3.7614 0
M  V30 74 H 2.6246 0.5797 -3.8349 0
M  V30 75 H 2.2219 0.6315 -4.4297 0
M  V30 76 C -1.9209 -3.3249 0.6941 0
M  V30 77 C -1.4414 -3.6513 -0.0735 0
M  V30 78 S -0.7584 -3.6042 -0.7135 0
M  V30 79 C -0.0776 -3.6226 -1.3601 0
M  V30 80 C 0.7286 -3.2208 -1.7475 0
M  V30 81 H -2.0376 -4.1368 1.0505 0
M  V30 82 H -2.7048 -3.6731 0.4338 0
M  V30 83 H -2.0630 -4.0876 -0.5430 0
M  V30 84 H -1.4684 -4.5324 0.0310 0
M  V30 85 H -0.5155 -4.1124 -1.9617 0
M  V30 86 H -0.0085 -4.5086 -1.4423 0
M  V30 87 H 1.0313 -4.0097 -2.0073 0
M  V30 88 H 0.6022 -3.6881 -2.4628 0
M  V30 89 C 3.0417 -2.4198 0.5191 0
M  V30 90 C 2.9530 -2.1250 1.4317 0
M  V30 91 S 2.4798 -1.7264 2.1375 0
M  V30 92 C 2.0544 -1.3738 2.8976 0
M  V30 93 C 1.3094 -0.9352 3.3540 0
M  V30 94 H 3.5026 -3.1533 0.7285 0
M  V30 95 H 3.9290 -2.2857 0.4809 0
M  V30 96 H 3.3760 -2.7627 1.8824 0
M  V30 97 H 3.7963 -1.9393 1.6667 0
M  V30 98 H 2.3767 -1.9732 3.4798 0
M  V30 99 H 2.8115 -1.2025 3.3282 0
M  V30 100 H 1.3843 -1.4783 4.0581 0
M  V30 101 H 1.8331 -0.8367 4.0337 0
M  V30 102 C -2.6792 -0.3850 2.2450 0
M  V30 103 C -3.0465 0.4123 1.7990 0
M  V30 104 S -2.9412 1.2063 1.2975 0
M  V30 105 C -2.8745 2.0380 0.8543 0
M  V30 106 C -2.3059 2.7313 0.4580 0
M  V30 107 H -3.4821 -0.6337 2.4254 0
M  V30 108 H -3.1648 -0.2812 2.9900 0
M  V30 109 H -3.9061 0.2952 1.6152 0
M  V30 110 H -3.7210 0.6924 2.3191 0
M  V30 111 H -3.5703 2.4670 1.2208 0
M  V30 112 H -3.7014 2.1036 0.5292 0
M  V30 113 H -2.8511 3.4110 0.6675 0
M  V30 114 H -2.9880 3.1109 0.0712 0
M  V30 END ATOM
M  V30 BEGIN BOND
M  V30 1 1 1 2
M  V30 2 1 2 3
M  V30 3 1 3 4
M  V30 4 1 4 5
M  V30 5 1 5 6
M  V30 6 1 6 7
M  V30 7 1 1 8
M  V30 8 1 1 9
M  V30 9 1 2 10
M  V30 10 1 3 11
M  V30 11 1 3 12
M  V30 12 1 5 13
M  V30 13 1 6 14
M  V30 14 1 6 15
M  V30 15 1 7 16
M  V30 16 1 7 17
M  V30 17 1 18 19
M  V30 18 1 19 20
M  V30 19 1 20 21
M  V30 20 1 21 22
M  V30 21 1 22 23
M  V30 22 1 23 24
M  V30 23 1 18 25
M  V30 24 1 18 26
M  V30 25 1 19 27
M  V30 26 1 20 28
M  V30 27 1 20 29
M  V30 28 1 22 30
M  V30 29 1 23 31
M  V30 30 1 23 32
M  V30 31 1 24 33
M  V30 32 1 24 34
M  V30 33 1 35 36
M  V30 34 1 36 37
M  V30 35 1 37 38
M  V30 36 1 38 39
M  V30 37 1 39 40
M  V30 38 1 40 41
M  V30 39 1 35 42
M  V30 40 1 35 43
M  V30 41 1 36 44
M  V30 42 1 37 45
M  V30 43 1 37 46
M  V30 44 1 39 47
M  V30 45 1 40 48
M  V30 46 1 40 49
M  V30 47 1 41 50
M  V30 48 1 41 51
M  V30 49 1 52 53
M  V30 50 1 53 54
M  V30 51 1 52 55
M  V30 52 1 52 56
M  V30 53 1 53 57
M  V30 54 1 54 58
M  V30 55 1 54 59
M  V30 56 1 60 61
M  V30 57 1 61 62
M  V30 58 1 60 63
M  V30 59 1 60 64
M  V30 60 1 61 65
M  V30 61 1 62 66
M  V30 62 1 62 67
M  V30 63 1 68 69
M  V30 64 1 69 70
M  V30 65 1 68 71
M  V30 66 1 68 72
M  V30 67 1 69 73
M  V30 68 1 70 74
M  V30 69 1 70 75
M  V30 70 1 76 77
M  V30 71 1 77 78
M  V30 72 1 78 79
M  V30 73 1 79 80
M  V30 74 1 76 81
M  V30 75 1 76 82
M  V30 76 1 77 83
M  V30 77 1 77 84
M  V30 78 1 79 85
M  V30 79 1 79 86
M  V30 80 1 80 87
M  V30 81 1 80 88
M  V30 82 1 89 90
M  V30 83 1 90 91
M  V30 84 1 91 92
M  V30 85 1 92 93
M  V30 86 1 89 94
M  V30 87 1 89 95
M  V30 88 1 90 96
M  V30 89 1 90 97
M  V30 90 1 92 98
M  V30 91 1 92 99
M  V30 92 1 93 100
M  V30 93 1 93 101
M  V30 94 1 102 103
M  V30 95 1 103 104
M  V30 96 1 104 105
M  V30 97 1 105 106
M  V30 98 1 102 107
M  V30 99 1 102 108
M  V30 100 1 103 109
M  V30 101 1 103 110
M  V30 102 1 105 111
M  V30 103 1 105 112
M  V30 104 1 106 113
M  V30 105 1 106 114
M  V30 106 1 1 52
M  V30 107 1 5 102
M  V30 108 1 7 76
M  V30 109 1 2 93
M  V30 110 1 18 68
M  V30 111 1 22 106
M  V30 112 1 19 60
M  V30 113 1 24 54
M  V30 114 1 35 62
M  V30 115 1 39 80
M  V30 116 1 36 70
M  V30 117 1 41 89
M  V30 END BOND
M  V30 END CTAB
M  END

$$$$
