
     RDKit          3D

  0  0  0  0  0  0  0  0  0  0999 V3000
M  V30 BEGIN CTAB
M  V30 COUNTS 114 117 0 0 0
M  V30 BEGIN ATOM
M  V30 1 C -0.0598 0.0176 -0.3783 0
M  V30 2 C -0.0377 -0.0832 -0.2584 0
M  V30 3 C -0.1397 -0.1050 -0.1367 0
M  V30 4 O -0.1932 -0.0637 0.0026 0
M  V30 5 C -0.2727 -0.0424 0.1356 0
M  V30 6 C -0.2411 -0.1133 0.2724 0
M  V30 7 C -0.2145 -0.1896 0.4025 0
M  V30 8 H 0.0420 0.1005 -0.3630 0
M  V30 9 H -0.1224 -0.0739 -0.4711 0
M  V30 10 H -0.1046 -0.1806 -0.3246 0
M  V30 11 H -0.1948 -0.2337 -0.1515 0
M  V30 12 H -0.2521 -0.1810 -0.1921 0
M  V30 13 H -0.3663 -0.1378 0.1036 0
M  V30 14 H -0.3470 -0.2111 0.2687 0
M  V30 15 H -0.1941 -0.0122 0.3393 0
M  V30 16 H -0.3325 -0.1995 0.4796 0
M  V30 17 H -0.2975 -0.3148 0.4026 0
M  V30 18 C 0.6740 -0.4767 -0.0817 0
M  V30 19 C 0.7315 -0.5313 0.0507 0
M  V30 20 C 0.6821 -0.6435 0.1475 0
M  V30 21 O 0.6572 -0.6291 0.2943 0
M  V30 22 C 0.6786 -0.5873 0.4342 0
M  V30 23 C 0.5830 -0.5775 0.5537 0
M  V30 24 C 0.4790 -0.5138 0.6438 0
M  V30 25 H 0.7939 -0.4674 -0.1570 0
M  V30 26 H 0.6795 -0.5980 -0.1667 0
M  V30 27 H 0.8101 -0.6240 -0.0193 0
M  V30 28 H 0.6445 -0.7802 0.1182 0
M  V30 29 H 0.7510 -0.7710 0.1270 0
M  V30 30 H 0.7205 -0.7206 0.4712 0
M  V30 31 H 0.5686 -0.7204 0.5936 0
M  V30 32 H 0.6720 -0.5991 0.6604 0
M  V30 33 H 0.5607 -0.4479 0.7478 0
M  V30 34 H 0.4790 -0.6203 0.7419 0
M  V30 35 C -0.6668 0.6474 -0.0558 0
M  V30 36 C -0.6499 0.7180 -0.1929 0
M  V30 37 C -0.6705 0.6649 -0.3382 0
M  V30 38 O -0.5645 0.6512 -0.4434 0
M  V30 39 C -0.4437 0.6835 -0.5235 0
M  V30 40 C -0.3470 0.5907 -0.5974 0
M  V30 41 C -0.2379 0.4894 -0.6189 0
M  V30 42 H -0.8140 0.6376 -0.0488 0
M  V30 43 H -0.7052 0.7569 0.0265 0
M  V30 44 H -0.7771 0.7787 -0.1861 0
M  V30 45 H -0.7952 0.6143 -0.3940 0
M  V30 46 H -0.7874 0.7193 -0.4025 0
M  V30 47 H -0.5219 0.7156 -0.6416 0
M  V30 48 H -0.4250 0.5686 -0.7222 0
M  V30 49 H -0.2939 0.6828 -0.6916 0
M  V30 50 H -0.2745 0.4622 -0.7594 0
M  V30 51 H -0.1371 0.5788 -0.6778 0
M  V30 52 C -0.0874 0.1087 -0.4975 0
M  V30 53 N -0.1307 0.2326 -0.5626 0
M  V30 54 C -0.1425 0.3765 -0.5983 0
M  V30 55 H -0.1429 0.0237 -0.6089 0
M  V30 56 H 0.0165 0.1093 -0.5895 0
M  V30 57 H -0.1669 0.1746 -0.6969 0
M  V30 58 H -0.0922 0.3728 -0.7331 0
M  V30 59 H -0.0155 0.4467 -0.6165 0
M  V30 60 C 0.8499 -0.4779 0.1319 0
M  V30 61 N 0.8614 -0.4709 0.2811 0
M  V30 62 C 0.8133 -0.5233 0.4123 0
M  V30 63 H 0.9784 -0.5318 0.0901 0
M  V30 64 H 0.9615 -0.3954 0.1057 0
M  V30 65 H 0.9901 -0.4143 0.3109 0
M  V30 66 H 0.9213 -0.6019 0.4667 0
M  V30 67 H 0.9062 -0.4607 0.4980 0
M  V30 68 C -0.5745 0.8470 -0.2242 0
M  V30 69 N -0.4723 0.8669 -0.3335 0
M  V30 70 C -0.4240 0.8226 -0.4688 0
M  V30 71 H -0.6613 0.9615 -0.2278 0
M  V30 72 H -0.5514 0.9644 -0.1486 0
M  V30 73 H -0.4229 1.0000 -0.3177 0
M  V30 74 H -0.3376 0.9300 -0.5001 0
M  V30 75 H -0.4611 0.9223 -0.5656 0
M  V30 76 C 0.0967 -0.1633 -0.2806 0
M  V30 77 C 0.2201 -0.2481 -0.3095 0
M  V30 78 S 0.3551 -0.2818 -0.2652 0
M  V30 79 C 0.4860 -0.3427 -0.2568 0
M  V30 80 C 0.6054 -0.3804 -0.1758 0
M  V30 81 H 0.1854 -0.0677 -0.2751 0
M  V30 82 H 0.0453 -0.2719 -0.3601 0
M  V30 83 H 0.1831 -0.3700 -0.3894 0
M  V30 84 H 0.2614 -0.2464 -0.4419 0
M  V30 85 H 0.4832 -0.4453 -0.3637 0
M  V30 86 H 0.5628 -0.2799 -0.3605 0
M  V30 87 H 0.7037 -0.2736 -0.2015 0
M  V30 88 H 0.6829 -0.4118 -0.2939 0
M  V30 89 C -0.3827 0.0686 0.1569 0
M  V30 90 C -0.4939 0.1718 0.1734 0
M  V30 91 S -0.5319 0.3114 0.1514 0
M  V30 92 C -0.6018 0.4376 0.1399 0
M  V30 93 C -0.6320 0.5627 0.0648 0
M  V30 94 H -0.5013 -0.0150 0.1514 0
M  V30 95 H -0.3213 0.1558 0.2363 0
M  V30 96 H -0.5516 0.1780 0.2988 0
M  V30 97 H -0.6284 0.1053 0.1791 0
M  V30 98 H -0.5951 0.4989 0.2711 0
M  V30 99 H -0.7347 0.4041 0.1926 0
M  V30 100 H -0.7571 0.5818 0.1346 0
M  V30 101 H -0.5972 0.6636 0.1679 0
M  V30 102 C -0.1316 -0.2115 0.5267 0
M  V30 103 C -0.0180 -0.2470 0.6152 0
M  V30 104 S 0.1058 -0.3171 0.6388 0
M  V30 105 C 0.2218 -0.3799 0.6974 0
M  V30 106 C 0.3437 -0.4649 0.6869 0
M  V30 107 H -0.2267 -0.3021 0.5951 0
M  V30 108 H -0.1719 -0.1237 0.6317 0
M  V30 109 H -0.0907 -0.3032 0.7267 0
M  V30 110 H -0.0027 -0.1457 0.7205 0
M  V30 111 H 0.1582 -0.4525 0.8048 0
M  V30 112 H 0.2538 -0.2910 0.8103 0
M  V30 113 H 0.3850 -0.4272 0.8206 0
M  V30 114 H 0.2901 -0.5874 0.7509 0
M  V30 END ATOM
M  V30 BEGIN BOND
M  V30 1 1 1 2
M  V30 2 1 2 3
M  V30 3 1 3 4
M  V30 4 1 4 5
M  V30 5 1 5 6
M  V30 6 1 6 7
M  V30 7 1 1 8
M  V30 8 1 1 9
M  V30 9 1 2 10
M  V30 10 1 3 11
M  V30 11 1 3 12
M  V30 12 1 5 13
M  V30 13 1 6 14
M  V30 14 1 6 15
M  V30 15 1 7 16
M  V30 16 1 7 17
M  V30 17 1 18 19
M  V30 18 1 19 20
M  V30 19 1 20 21
M  V30 20 1 21 22
M  V30 21 1 22 23
M  V30 22 1 23 24
M  V30 23 1 18 25
M  V30 24 1 18 26
M  V30 25 1 19 27
M  V30 26 1 20 28
M  V30 27 1 20 29
M  V30 28 1 22 30
M  V30 29 1 23 31
M  V30 30 1 23 32
M  V30 31 1 24 33
M  V30 32 1 24 34
M  V30 33 1 35 36
M  V30 34 1 36 37
M  V30 35 1 37 38
M  V30 36 1 38 39
M  V30 37 1 39 40
M  V30 38 1 40 41
M  V30 39 1 35 42
M  V30 40 1 35 43
M  V30 41 1 36 44
M  V30 42 1 37 45
M  V30 43 1 37 46
M  V30 44 1 39 47
M  V30 45 1 40 48
M  V30 46 1 40 49
M  V30 47 1 41 50
M  V30 48 1 41 51
M  V30 49 1 52 53
M  V30 50 1 53 54
M  V30 51 1 52 55
M  V30 52 1 52 56
M  V30 53 1 53 57
M  V30 54 1 54 58
M  V30 55 1 54 59
M  V30 56 1 60 61
M  V30 57 1 61 62
M  V30 58 1 60 63
M  V30 59 1 60 64
M  V30 60 1 61 65
M  V30 61 1 62 66
M  V30 62 1 62 67
M  V30 63 1 68 69
M  V30 64 1 69 70
M  V30 65 1 68 71
M  V30 66 1 68 72
M  V30 67 1 69 73
M  V30 68 1 70 74
M  V30 69 1 70 75
M  V30 70 1 76 77
M  V30 71 1 77 78
M  V30 72 1 78 79
M  V30 73 1 79 80
M  V30 74 1 76 81
M  V30 75 1 76 82
M  V30 76 1 77 83
M  V30 77 1 77 84
M  V30 78 1 79 85
M  V30 79 1 79 86
M  V30 80 1 80 87
M  V30 81 1 80 88
M  V30 82 1 89 90
M  V30 83 1 90 91
M  V30 84 1 91 92
M  V30 85 1 92 93
M  V30 86 1 89 94
M  V30 87 1 89 95
M  V30 88 1 90 96
M  V30 89 1 90 97
M  V30 90 1 92 98
M  V30 91 1 92 99
M  V30 92 1 93 100
M  V30 93 1 93 101
M  V30 94 1 102 103
M  V30 95 1 103 104
M  V30 96 1 104 105
M  V30 97 1 105 106
M  V30 98 1 102 107
M  V30 99 1 102 108
M  V30 100 1 103 109
M  V30 101 1 103 110
M  V30 102 1 105 111
M  V30 103 1 105 112
M  V30 104 1 106 113
M  V30 105 1 106 114
M  V30 106 1 1 52
M  V30 107 1 2 76
M  V30 108 1 5 89
M  V30 109 1 7 102
M  V30 110 1 18 80
M  V30 111 1 19 60
M  V30 112 1 22 62
M  V30 113 1 24 106
M  V30 114 1 35 93
M  V30 115 1 36 68
M  V30 116 1 39 70
M  V30 117 1 41 54
M  V30 END BOND
M  V30 END CTAB
M  END

$$$$
