
     RDKit          3D

  0  0  0  0  0  0  0  0  0  0999 V3000
M  V30 BEGIN CTAB
M  V30 COUNTS 114 117 0 0 0
M  V30 BEGIN ATOM
M  V30 1 C 0.2259 -1.5700 -0.6484 0
M  V30 2 C 0.3846 -1.1039 -0.1815 0
M  V30 3 C 0.7183 -0.5250 -0.3287 0
M  V30 4 O 0.7187 0.1177 -0.4700 0
M  V30 5 C 0.8551 0.7441 -0.6498 0
M  V30 6 C 1.0363 1.2343 -0.2312 0
M  V30 7 C 1.2398 1.6966 0.1802 0
M  V30 8 H 0.7655 -1.8324 -0.8580 0
M  V30 9 H 0.5432 -2.0798 -0.5789 0
M  V30 10 H 0.8924 -1.3553 -0.1623 0
M  V30 11 H 1.2920 -0.6153 -0.1839 0
M  V30 12 H 1.2745 -0.6985 -0.5506 0
M  V30 13 H 1.4155 0.6258 -0.7629 0
M  V30 14 H 1.6393 1.2367 -0.3487 0
M  V30 15 H 0.5839 1.5464 -0.2592 0
M  V30 16 H 1.8764 1.6686 0.2220 0
M  V30 17 H 1.5931 2.0931 -0.1046 0
M  V30 18 C -0.1817 -1.1550 3.3245 0
M  V30 19 C -0.1395 -0.6876 3.7836 0
M  V30 20 C 0.3734 -0.3273 4.0043 0
M  V30 21 O 0.4018 0.3079 4.0338 0
M  V30 22 C 0.2167 0.8985 4.1379 0
M  V30 23 C 0.4427 1.4705 3.9207 0
M  V30 24 C 0.5083 1.9633 3.5096 0
M  V30 25 H 0.2068 -1.5922 3.5613 0
M  V30 26 H -0.5217 -1.5556 3.6210 0
M  V30 27 H -0.0403 -1.0984 4.2049 0
M  V30 28 H 0.6182 -0.5500 4.5318 0
M  V30 29 H 0.9274 -0.5138 4.1986 0
M  V30 30 H 0.5561 0.9297 4.6493 0
M  V30 31 H 0.2878 1.8310 4.3726 0
M  V30 32 H 0.9607 1.5505 4.2770 0
M  V30 33 H 0.0784 2.3762 3.7095 0
M  V30 34 H 0.8654 2.3005 3.8802 0
M  V30 35 C -0.4736 0.7076 -3.8638 0
M  V30 36 C -0.7491 0.1690 -4.1266 0
M  V30 37 C -0.5102 -0.4441 -4.2111 0
M  V30 38 O -0.7324 -0.9759 -3.9368 0
M  V30 39 C -1.1488 -1.3887 -3.7033 0
M  V30 40 C -1.0793 -1.8302 -3.2303 0
M  V30 41 C -1.0076 -2.0724 -2.6437 0
M  V30 42 H -0.7513 1.1450 -4.1778 0
M  V30 43 H -0.0636 0.8567 -4.3159 0
M  V30 44 H -0.6270 0.3400 -4.6888 0
M  V30 45 H -0.0161 -0.5988 -4.5513 0
M  V30 46 H -0.3915 -0.5790 -4.7972 0
M  V30 47 H -1.0539 -1.7912 -4.1623 0
M  V30 48 H -1.5320 -2.2038 -3.3767 0
M  V30 49 H -0.8050 -2.2934 -3.5625 0
M  V30 50 H -1.5696 -2.3440 -2.5899 0
M  V30 51 H -0.8155 -2.6358 -2.8464 0
M  V30 52 C -0.2149 -1.8748 -1.0226 0
M  V30 53 N -0.4083 -2.0711 -1.5887 0
M  V30 54 C -0.8508 -2.1461 -2.0350 0
M  V30 55 H -0.1073 -2.4676 -0.9255 0
M  V30 56 H -0.7218 -2.0429 -0.7873 0
M  V30 57 H -0.0587 -2.5995 -1.7110 0
M  V30 58 H -1.4047 -2.3309 -1.8207 0
M  V30 59 H -0.8885 -2.7609 -2.0304 0
M  V30 60 C -0.6224 -0.4039 4.1165 0
M  V30 61 N -0.6646 0.2090 4.2856 0
M  V30 62 C -0.3527 0.7510 4.3934 0
M  V30 63 H -0.7814 -0.7089 4.6313 0
M  V30 64 H -1.1931 -0.5397 4.2460 0
M  V30 65 H -1.1899 0.2751 4.5912 0
M  V30 66 H -0.3684 0.8419 5.0000 0
M  V30 67 H -0.7995 1.0785 4.6240 0
M  V30 68 C -1.3788 0.0523 -4.2339 0
M  V30 69 N -1.7048 -0.4726 -4.0599 0
M  V30 70 C -1.6737 -1.0975 -3.9296 0
M  V30 71 H -1.5430 0.1779 -4.8094 0
M  V30 72 H -1.8390 0.4145 -4.3747 0
M  V30 73 H -2.2834 -0.3704 -4.2147 0
M  V30 74 H -1.9137 -1.4068 -4.3998 0
M  V30 75 H -2.2588 -1.2359 -3.9457 0
M  V30 76 C 0.2457 -1.3236 0.4372 0
M  V30 77 C 0.1743 -1.5904 1.0256 0
M  V30 78 S -0.0333 -1.5297 1.6038 0
M  V30 79 C -0.1585 -1.6425 2.1955 0
M  V30 80 C -0.3396 -1.4229 2.7617 0
M  V30 81 H -0.3113 -1.2824 0.4569 0
M  V30 82 H 0.7378 -1.6692 0.5097 0
M  V30 83 H -0.0658 -2.1226 1.0159 0
M  V30 84 H 0.6339 -2.0225 1.1371 0
M  V30 85 H -0.5753 -2.0893 2.1864 0
M  V30 86 H 0.1906 -2.1495 2.3381 0
M  V30 87 H -0.4604 -1.9879 2.9739 0
M  V30 88 H -0.9586 -1.5227 2.7858 0
M  V30 89 C 0.7445 0.9956 -1.2623 0
M  V30 90 C 0.6710 1.2265 -1.8649 0
M  V30 91 S 0.3015 1.2474 -2.3635 0
M  V30 92 C 0.0555 1.3363 -2.9202 0
M  V30 93 C -0.2795 1.1250 -3.4138 0
M  V30 94 H 0.2828 1.3176 -1.1868 0
M  V30 95 H 1.3277 1.0195 -1.4595 0
M  V30 96 H 0.7607 1.8032 -1.9288 0
M  V30 97 H 1.2369 1.3406 -2.1357 0
M  V30 98 H -0.1846 1.9055 -2.9123 0
M  V30 99 H 0.5046 1.6544 -3.2154 0
M  V30 100 H -0.0145 1.5236 -3.8010 0
M  V30 101 H -0.7124 1.5828 -3.4504 0
M  V30 102 C 1.1125 2.1313 0.6348 0
M  V30 103 C 0.9347 2.3902 1.1827 0
M  V30 104 S 0.8406 2.3492 1.7881 0
M  V30 105 C 0.7479 2.4636 2.3846 0
M  V30 106 C 0.7075 2.2733 2.9876 0
M  V30 107 H 1.6786 2.4088 0.6297 0
M  V30 108 H 0.9547 2.6612 0.3853 0
M  V30 109 H 1.3257 2.8638 1.2020 0
M  V30 110 H 0.5686 2.8851 1.0797 0
M  V30 111 H 0.3764 2.9681 2.3746 0
M  V30 112 H 1.1670 2.9044 2.4700 0
M  V30 113 H 0.4833 2.8215 3.1592 0
M  V30 114 H 1.2628 2.4936 3.1899 0
M  V30 END ATOM
M  V30 BEGIN BOND
M  V30 1 1 1 2
M  V30 2 1 2 3
M  V30 3 1 3 4
M  V30 4 1 4 5
M  V30 5 1 5 6
M  V30 6 1 6 7
M  V30 7 1 1 8
M  V30 8 1 1 9
M  V30 9 1 2 10
M  V30 10 1 3 11
M  V30 11 1 3 12
M  V30 12 1 5 13
M  V30 13 1 6 14
M  V30 14 1 6 15
M  V30 15 1 7 16
M  V30 16 1 7 17
M  V30 17 1 18 19
M  V30 18 1 19 20
M  V30 19 1 20 21
M  V30 20 1 21 22
M  V30 21 1 22 23
M  V30 22 1 23 24
M  V30 23 1 18 25
M  V30 24 1 18 26
M  V30 25 1 19 27
M  V30 26 1 20 28
M  V30 27 1 20 29
M  V30 28 1 22 30
M  V30 29 1 23 31
M  V30 30 1 23 32
M  V30 31 1 24 33
M  V30 32 1 24 34
M  V30 33 1 35 36
M  V30 34 1 36 37
M  V30 35 1 37 38
M  V30 36 1 38 39
M  V30 37 1 39 40
M  V30 38 1 40 41
M  V30 39 1 35 42
M  V30 40 1 35 43
M  V30 41 1 36 44
M  V30 42 1 37 45
M  V30 43 1 37 46
M  V30 44 1 39 47
M  V30 45 1 40 48
M  V30 46 1 40 49
M  V30 47 1 41 50
M  V30 48 1 41 51
M  V30 49 1 52 53
M  V30 50 1 53 54
M  V30 51 1 52 55
M  V30 52 1 52 56
M  V30 53 1 53 57
M  V30 54 1 54 58
M  V30 55 1 54 59
M  V30 56 1 60 61
M  V30 57 1 61 62
M  V30 58 1 60 63
M  V30 59 1 60 64
M  V30 60 1 61 65
M  V30 61 1 62 66
M  V30 62 1 62 67
M  V30 63 1 68 69
M  V30 64 1 69 70
M  V30 65 1 68 71
M  V30 66 1 68 72
M  V30 67 1 69 73
M  V30 68 1 70 74
M  V30 69 1 70 75
M  V30 70 1 76 77
M  V30 71 1 77 78
M  V30 72 1 78 79
M  V30 73 1 79 80
M  V30 74 1 76 81
M  V30 75 1 76 82
M  V30 76 1 77 83
M  V30 77 1 77 84
M  V30 78 1 79 85
M  V30 79 1 79 86
M  V30 80 1 80 87
M  V30 81 1 80 88
M  V30 82 1 89 90
M  V30 83 1 90 91
M  V30 84 1 91 92
M  V30 85 1 92 93
M  V30 86 1 89 94
M  V30 87 1 89 95
M  V30 88 1 90 96
M  V30 89 1 90 97
M  V30 90 1 92 98
M  V30 91 1 92 99
M  V30 92 1 93 100
M  V30 93 1 93 101
M  V30 94 1 102 103
M  V30 95 1 103 104
M  V30 96 1 104 105
M  V30 97 1 105 106
M  V30 98 1 102 107
M  V30 99 1 102 108
M  V30 100 1 103 109
M  V30 101 1 103 110
M  V30 102 1 105 111
M  V30 103 1 105 112
M  V30 104 1 106 113
M  V30 105 1 106 114
M  V30 106 1 1 52
M  V30 107 1 2 76
M  V30 108 1 5 89
M  V30 109 1 7 102
M  V30 110 1 18 80
M  V30 111 1 19 60
M  V30 112 1 22 62
M  V30 113 1 24 106
M  V30 114 1 35 93
M  V30 115 1 36 68
M  V30 116 1 39 70
M  V30 117 1 41 54
M  V30 END BOND
M  V30 END CTAB
M  END

$$$$
