
     RDKit          3D

  0  0  0  0  0  0  0  0  0  0999 V3000
M  V30 BEGIN CTAB
M  V30 COUNTS 76 78 0 0 0
M  V30 BEGIN ATOM
M  V30 1 C 0.5886 2.8915 0.2211 0
M  V30 2 B 1.2202 2.9114 -0.8580 0
M  V30 3 C 1.6362 2.7431 -1.9496 0
M  V30 4 H 0.6948 3.3879 0.1690 0
M  V30 5 H 1.5477 3.3252 -0.9211 0
M  V30 6 H 2.0765 3.0514 -2.1071 0
M  V30 7 H 2.1948 2.6602 -2.0085 0
M  V30 8 C -1.8251 -1.4763 -0.1451 0
M  V30 9 B -1.3250 -2.5365 0.0389 0
M  V30 10 C -0.6488 -3.4413 -0.0361 0
M  V30 11 H -2.2873 -1.5431 0.1195 0
M  V30 12 H -1.5976 -2.8674 0.3728 0
M  V30 13 H -0.8445 -3.9634 0.1406 0
M  V30 14 H -0.5535 -3.8544 0.3518 0
M  V30 15 C -0.3166 -2.1968 -2.8159 0
M  V30 16 B -0.2651 -1.1043 -3.4253 0
M  V30 17 C -0.2024 0.0372 -3.8209 0
M  V30 18 H -0.2267 -2.4340 -3.3188 0
M  V30 19 H -0.2585 -1.2286 -3.9544 0
M  V30 20 H -0.2155 0.0288 -4.3678 0
M  V30 21 H -0.5771 0.1663 -4.1860 0
M  V30 22 C 0.5993 0.0045 4.3132 0
M  V30 23 B 0.7617 1.1333 4.4536 0
M  V30 24 C 0.8791 2.2256 4.2402 0
M  V30 25 H 0.5947 0.0145 4.8424 0
M  V30 26 H 0.8471 1.2240 5.0000 0
M  V30 27 H 0.7780 2.4904 4.7430 0
M  V30 28 H 1.1583 2.4365 4.6984 0
M  V30 29 C 0.8201 3.4165 1.3408 0
M  V30 30 N 0.9151 3.4234 2.4832 0
M  V30 31 C 0.9309 3.0661 3.5250 0
M  V30 32 H 1.1407 3.8705 1.4250 0
M  V30 33 H 0.7602 3.9712 1.3975 0
M  V30 34 H 1.0325 3.9303 2.6918 0
M  V30 35 H 1.2125 3.4511 3.8536 0
M  V30 36 H 0.8261 3.5113 3.8681 0
M  V30 37 C 0.0979 -3.8774 -0.5806 0
M  V30 38 N 0.3819 -3.6523 -1.4834 0
M  V30 39 C 0.2624 -3.0717 -2.3267 0
M  V30 40 H 0.4536 -4.3613 -0.5625 0
M  V30 41 H 0.2805 -4.3747 -0.2895 0
M  V30 42 H 0.7599 -4.1014 -1.5649 0
M  V30 43 H 0.4322 -3.5203 -2.6800 0
M  V30 44 H 0.7386 -3.3033 -2.5600 0
M  V30 45 C 0.8754 -0.7638 4.3608 0
M  V30 46 N 0.4466 -1.1335 4.2964 0
M  V30 47 C 0.1975 -0.7149 3.9380 0
M  V30 48 H 1.1407 -1.0692 4.7482 0
M  V30 49 H 1.3442 -1.0373 4.3741 0
M  V30 50 H 0.3753 -1.5793 4.6564 0
M  V30 51 H -0.0042 -1.1248 3.5970 0
M  V30 52 H -0.2772 -0.8645 3.6600 0
M  V30 53 C -0.3833 2.1124 0.2088 0
M  V30 54 N -1.1361 1.0500 0.1739 0
M  V30 55 C -1.6871 -0.1495 0.0899 0
M  V30 56 H -0.7200 2.4577 0.3870 0
M  V30 57 H -0.5252 2.5441 0.0435 0
M  V30 58 H -1.5355 1.3396 0.2629 0
M  V30 59 H -2.1857 0.0391 0.0452 0
M  V30 60 H -2.1069 -0.0801 0.4099 0
M  V30 61 C 1.4507 2.4777 -2.9989 0
M  V30 62 N 0.8434 1.8960 -3.6347 0
M  V30 63 C 0.1479 1.1196 -3.8896 0
M  V30 64 H 1.6437 2.8956 -3.3622 0
M  V30 65 H 1.8858 2.5520 -3.3487 0
M  V30 66 H 0.9715 2.1615 -4.1319 0
M  V30 67 H 0.0228 1.3559 -4.3740 0
M  V30 68 H -0.2352 1.4935 -4.0274 0
M  V30 69 C -2.2748 -2.0025 -0.8975 0
M  V30 70 N -1.9236 -2.3431 -1.7183 0
M  V30 71 C -1.1764 -2.4503 -2.3476 0
M  V30 72 H -2.8534 -2.0590 -1.0515 0
M  V30 73 H -2.7905 -2.2848 -0.7786 0
M  V30 74 H -2.3870 -2.6250 -1.9662 0
M  V30 75 H -1.3466 -2.9080 -2.3440 0
M  V30 76 H -1.2752 -2.7686 -2.7081 0
M  V30 END ATOM
M  V30 BEGIN BOND
M  V30 1 1 1 2
M  V30 2 1 2 3
M  V30 3 1 1 4
M  V30 4 1 2 5
M  V30 5 1 3 6
M  V30 6 1 3 7
M  V30 7 1 8 9
M  V30 8 1 9 10
M  V30 9 1 8 11
M  V30 10 1 9 12
M  V30 11 1 10 13
M  V30 12 1 10 14
M  V30 13 1 15 16
M  V30 14 1 16 17
M  V30 15 1 15 18
M  V30 16 1 16 19
M  V30 17 1 17 20
M  V30 18 1 17 21
M  V30 19 1 22 23
M  V30 20 1 23 24
M  V30 21 1 22 25
M  V30 22 1 23 26
M  V30 23 1 24 27
M  V30 24 1 24 28
M  V30 25 1 29 30
M  V30 26 1 30 31
M  V30 27 1 29 32
M  V30 28 1 29 33
M  V30 29 1 30 34
M  V30 30 1 31 35
M  V30 31 1 31 36
M  V30 32 1 37 38
M  V30 33 1 38 39
M  V30 34 1 37 40
M  V30 35 1 37 41
M  V30 36 1 38 42
M  V30 37 1 39 43
M  V30 38 1 39 44
M  V30 39 1 45 46
M  V30 40 1 46 47
M  V30 41 1 45 48
M  V30 42 1 45 49
M  V30 43 1 46 50
M  V30 44 1 47 51
M  V30 45 1 47 52
M  V30 46 1 53 54
M  V30 47 1 54 55
M  V30 48 1 53 56
M  V30 49 1 53 57
M  V30 50 1 54 58
M  V30 51 1 55 59
M  V30 52 1 55 60
M  V30 53 1 61 62
M  V30 54 1 62 63
M  V30 55 1 61 64
M  V30 56 1 61 65
M  V30 57 1 62 66
M  V30 58 1 63 67
M  V30 59 1 63 68
M  V30 60 1 69 70
M  V30 61 1 70 71
M  V30 62 1 69 72
M  V30 63 1 69 73
M  V30 64 1 70 74
M  V30 65 1 71 75
M  V30 66 1 71 76
M  V30 67 1 1 29
M  V30 68 1 1 53
M  V30 69 1 3 61
M  V30 70 1 8 69
M  V30 71 1 8 55
M  V30 72 1 10 37
M  V30 73 1 15 39
M  V30 74 1 15 71
M  V30 75 1 17 63
M  V30 76 1 22 45
M  V30 77 1 22 47
M  V30 78 1 24 31
M  V30 END BOND
M  V30 END CTAB
M  END

$$$$
