
     RDKit          3D

  0  0  0  0  0  0  0  0  0  0999 V3000
M  V30 BEGIN CTAB
M  V30 COUNTS 76 78 0 0 0
M  V30 BEGIN ATOM
M  V30 1 C -1.8198 -2.5754 -2.7368 0
M  V30 2 B -2.5003 -2.9668 -1.9942 0
M  V30 3 C -3.3833 -3.2127 -1.5839 0
M  V30 4 H -1.6523 -3.0049 -3.0277 0
M  V30 5 H -2.4136 -3.4642 -1.7741 0
M  V30 6 H -3.6782 -3.7496 -1.4203 0
M  V30 7 H -3.6842 -3.4557 -1.1102 0
M  V30 8 C 0.0668 2.2980 1.9932 0
M  V30 9 B -1.2085 2.0331 2.0561 0
M  V30 10 C -2.3746 1.8760 1.7962 0
M  V30 11 H 0.0541 2.4164 2.5410 0
M  V30 12 H -1.4211 2.0860 2.6017 0
M  V30 13 H -2.9007 1.9768 2.1364 0
M  V30 14 H -2.6905 1.7419 2.3261 0
M  V30 15 C 4.2647 -2.4528 3.1635 0
M  V30 16 B 4.4458 -1.3830 2.8283 0
M  V30 17 C 4.3484 -0.2820 2.5498 0
M  V30 18 H 4.8088 -2.6121 3.2869 0
M  V30 19 H 5.0000 -1.4668 2.9547 0
M  V30 20 H 4.9388 -0.2588 2.4568 0
M  V30 21 H 4.8402 -0.1625 2.8700 0
M  V30 22 C -0.9995 2.8372 -1.5377 0
M  V30 23 B -0.3919 2.2658 -2.5904 0
M  V30 24 C 0.1318 1.4602 -3.4269 0
M  V30 25 H -1.0950 3.2653 -1.9345 0
M  V30 26 H -0.3230 2.6472 -3.0329 0
M  V30 27 H 0.4977 1.7898 -3.8049 0
M  V30 28 H 0.2305 1.6378 -4.0071 0
M  V30 29 C -3.0171 1.8974 0.9265 0
M  V30 30 N -2.7598 2.2392 -0.0941 0
M  V30 31 C -2.0884 2.6559 -0.9740 0
M  V30 32 H -3.6695 1.8907 0.9730 0
M  V30 33 H -3.5433 1.6045 1.1449 0
M  V30 34 H -3.3416 2.3282 -0.1919 0
M  V30 35 H -2.4655 3.1285 -1.1021 0
M  V30 36 H -2.5377 2.8073 -1.3437 0
M  V30 37 C -0.0463 3.2288 1.4148 0
M  V30 38 N -0.2432 3.5702 0.3920 0
M  V30 39 C -0.5528 3.5085 -0.6836 0
M  V30 40 H -0.0482 3.8221 1.6188 0
M  V30 41 H 0.0740 3.5859 1.8834 0
M  V30 42 H -0.1273 4.1673 0.4618 0
M  V30 43 H -0.2830 4.0244 -0.8946 0
M  V30 44 H -0.6700 4.1206 -0.8044 0
M  V30 45 C 4.1050 -3.3158 3.1790 0
M  V30 46 N 3.5534 -3.2804 3.4478 0
M  V30 47 C 4.0026 -2.9905 3.7610 0
M  V30 48 H 4.1550 -3.9252 3.1186 0
M  V30 49 H 4.5347 -3.7898 3.2695 0
M  V30 50 H 2.9035 -3.3070 3.3502 0
M  V30 51 H 3.9790 -3.3335 4.2898 0
M  V30 52 H 4.3389 -3.1601 4.2571 0
M  V30 53 C -2.7333 -3.0433 -2.9590 0
M  V30 54 N -3.5865 -3.1146 -2.6099 0
M  V30 55 C -4.0392 -3.0302 -1.9383 0
M  V30 56 H -2.8331 -3.5786 -3.3083 0
M  V30 57 H -2.9621 -3.2339 -3.5086 0
M  V30 58 H -4.0566 -3.4003 -2.9413 0
M  V30 59 H -4.5843 -2.7690 -1.8276 0
M  V30 60 H -4.6384 -3.1785 -1.8209 0
M  V30 61 C 1.3849 1.8721 2.1383 0
M  V30 62 N 2.5930 1.3336 2.1147 0
M  V30 63 C 3.6726 0.6771 2.2765 0
M  V30 64 H 1.7353 2.2061 2.2195 0
M  V30 65 H 1.5450 2.0100 2.6694 0
M  V30 66 H 2.9882 1.6404 2.0085 0
M  V30 67 H 4.0965 0.9546 2.5561 0
M  V30 68 H 4.1645 0.9029 2.0835 0
M  V30 69 C -0.7938 -1.8311 -3.2182 0
M  V30 70 N -0.0990 -0.8284 -3.5874 0
M  V30 71 C 0.3039 0.3123 -3.7604 0
M  V30 72 H -0.4062 -2.1981 -3.3890 0
M  V30 73 H -0.7168 -2.0755 -3.7309 0
M  V30 74 H 0.2207 -1.0183 -4.0310 0
M  V30 75 H 0.7053 0.4891 -4.2050 0
M  V30 76 H 0.6961 0.1404 -4.2096 0
M  V30 END ATOM
M  V30 BEGIN BOND
M  V30 1 1 1 2
M  V30 2 1 2 3
M  V30 3 1 1 4
M  V30 4 1 2 5
M  V30 5 1 3 6
M  V30 6 1 3 7
M  V30 7 1 8 9
M  V30 8 1 9 10
M  V30 9 1 8 11
M  V30 10 1 9 12
M  V30 11 1 10 13
M  V30 12 1 10 14
M  V30 13 1 15 16
M  V30 14 1 16 17
M  V30 15 1 15 18
M  V30 16 1 16 19
M  V30 17 1 17 20
M  V30 18 1 17 21
M  V30 19 1 22 23
M  V30 20 1 23 24
M  V30 21 1 22 25
M  V30 22 1 23 26
M  V30 23 1 24 27
M  V30 24 1 24 28
M  V30 25 1 29 30
M  V30 26 1 30 31
M  V30 27 1 29 32
M  V30 28 1 29 33
M  V30 29 1 30 34
M  V30 30 1 31 35
M  V30 31 1 31 36
M  V30 32 1 37 38
M  V30 33 1 38 39
M  V30 34 1 37 40
M  V30 35 1 37 41
M  V30 36 1 38 42
M  V30 37 1 39 43
M  V30 38 1 39 44
M  V30 39 1 45 46
M  V30 40 1 46 47
M  V30 41 1 45 48
M  V30 42 1 45 49
M  V30 43 1 46 50
M  V30 44 1 47 51
M  V30 45 1 47 52
M  V30 46 1 53 54
M  V30 47 1 54 55
M  V30 48 1 53 56
M  V30 49 1 53 57
M  V30 50 1 54 58
M  V30 51 1 55 59
M  V30 52 1 55 60
M  V30 53 1 61 62
M  V30 54 1 62 63
M  V30 55 1 61 64
M  V30 56 1 61 65
M  V30 57 1 62 66
M  V30 58 1 63 67
M  V30 59 1 63 68
M  V30 60 1 69 70
M  V30 61 1 70 71
M  V30 62 1 69 72
M  V30 63 1 69 73
M  V30 64 1 70 74
M  V30 65 1 71 75
M  V30 66 1 71 76
M  V30 67 1 1 69
M  V30 68 1 1 53
M  V30 69 1 3 55
M  V30 70 1 8 37
M  V30 71 1 8 61
M  V30 72 1 10 29
M  V30 73 1 15 45
M  V30 74 1 15 47
M  V30 75 1 17 63
M  V30 76 1 22 31
M  V30 77 1 22 39
M  V30 78 1 24 71
M  V30 END BOND
M  V30 END CTAB
M  END

$$$$
