
     RDKit          3D

  0  0  0  0  0  0  0  0  0  0999 V3000
M  V30 BEGIN CTAB
M  V30 COUNTS 76 78 0 0 0
M  V30 BEGIN ATOM
M  V30 1 C 0.0533 0.2323 -0.6689 0
M  V30 2 B -0.1290 0.4307 -0.7083 0
M  V30 3 C -0.3084 0.6060 -0.6475 0
M  V30 4 H 0.0820 0.2534 -0.7959 0
M  V30 5 H -0.1423 0.4736 -0.8352 0
M  V30 6 H -0.3295 0.7009 -0.7480 0
M  V30 7 H -0.3881 0.6411 -0.7561 0
M  V30 8 C -0.0360 -0.7700 -0.1943 0
M  V30 9 B -0.0594 -0.8644 0.0425 0
M  V30 10 C 0.0024 -0.8173 0.2916 0
M  V30 11 H -0.0754 -0.8826 -0.2679 0
M  V30 12 H -0.1225 -1.0000 0.0241 0
M  V30 13 H -0.0720 -0.9341 0.3455 0
M  V30 14 H 0.0054 -0.9547 0.3537 0
M  V30 15 C -0.1456 0.0215 0.4127 0
M  V30 16 B 0.0990 -0.1405 0.3309 0
M  V30 17 C 0.3142 -0.3343 0.2677 0
M  V30 18 H -0.1636 0.0069 0.5265 0
M  V30 19 H 0.1851 -0.1142 0.3398 0
M  V30 20 H 0.4479 -0.3292 0.3131 0
M  V30 21 H 0.4427 -0.3455 0.2346 0
M  V30 22 C 0.2662 0.3324 0.2787 0
M  V30 23 B 0.0834 0.5642 0.2876 0
M  V30 24 C -0.1300 0.7388 0.2244 0
M  V30 25 H 0.3523 0.3991 0.3576 0
M  V30 26 H 0.1194 0.6561 0.3809 0
M  V30 27 H -0.1700 0.8592 0.2749 0
M  V30 28 H -0.1304 0.8301 0.3292 0
M  V30 29 C -0.3033 0.1733 0.4250 0
M  V30 30 N -0.4357 0.1627 0.4690 0
M  V30 31 C -0.3389 0.0676 0.5068 0
M  V30 32 H -0.3942 0.2616 0.4054 0
M  V30 33 H -0.3450 0.2755 0.5000 0
M  V30 34 H -0.5701 0.2043 0.5011 0
M  V30 35 H -0.4546 0.0276 0.5752 0
M  V30 36 H -0.4048 0.0717 0.6376 0
M  V30 37 C 0.0068 -0.0687 -0.7061 0
M  V30 38 N -0.0392 -0.3516 -0.6149 0
M  V30 39 C -0.0641 -0.6032 -0.4516 0
M  V30 40 H -0.0357 -0.0878 -0.8327 0
M  V30 41 H 0.0490 -0.0975 -0.8312 0
M  V30 42 H -0.0604 -0.4084 -0.7326 0
M  V30 43 H -0.0586 -0.6939 -0.5545 0
M  V30 44 H -0.1414 -0.6773 -0.5359 0
M  V30 45 C 0.2563 0.3516 -0.5110 0
M  V30 46 N 0.3586 0.4089 -0.2571 0
M  V30 47 C 0.3773 0.4125 0.0234 0
M  V30 48 H 0.3184 0.4407 -0.5937 0
M  V30 49 H 0.3577 0.3692 -0.6010 0
M  V30 50 H 0.4652 0.4811 -0.2992 0
M  V30 51 H 0.4629 0.5200 0.0250 0
M  V30 52 H 0.5087 0.4543 0.0403 0
M  V30 53 C 0.0844 -0.7943 -0.0208 0
M  V30 54 N 0.2633 -0.7262 0.1025 0
M  V30 55 C 0.3853 -0.5687 0.1982 0
M  V30 56 H 0.0635 -0.9140 0.0069 0
M  V30 57 H -0.0130 -0.8189 0.0389 0
M  V30 58 H 0.3225 -0.8119 0.1745 0
M  V30 59 H 0.5088 -0.6409 0.1700 0
M  V30 60 H 0.5049 -0.6356 0.2507 0
M  V30 61 C -0.4222 0.7086 -0.4471 0
M  V30 62 N -0.4126 0.7691 -0.1958 0
M  V30 63 C -0.3208 0.8045 0.0456 0
M  V30 64 H -0.4973 0.8089 -0.5046 0
M  V30 65 H -0.5397 0.7022 -0.4961 0
M  V30 66 H -0.5094 0.8581 -0.2092 0
M  V30 67 H -0.4219 0.8867 0.0905 0
M  V30 68 H -0.3616 0.9354 0.0570 0
M  V30 69 C 0.1115 -0.6028 0.4473 0
M  V30 70 N 0.2088 -0.2981 0.4863 0
M  V30 71 C 0.2787 0.0288 0.4370 0
M  V30 72 H 0.1454 -0.7203 0.5141 0
M  V30 73 H 0.0918 -0.6757 0.5708 0
M  V30 74 H 0.2471 -0.3437 0.6146 0
M  V30 75 H 0.3908 0.0506 0.5183 0
M  V30 76 H 0.3257 0.0442 0.5691 0
M  V30 END ATOM
M  V30 BEGIN BOND
M  V30 1 1 1 2
M  V30 2 1 2 3
M  V30 3 1 1 4
M  V30 4 1 2 5
M  V30 5 1 3 6
M  V30 6 1 3 7
M  V30 7 1 8 9
M  V30 8 1 9 10
M  V30 9 1 8 11
M  V30 10 1 9 12
M  V30 11 1 10 13
M  V30 12 1 10 14
M  V30 13 1 15 16
M  V30 14 1 16 17
M  V30 15 1 15 18
M  V30 16 1 16 19
M  V30 17 1 17 20
M  V30 18 1 17 21
M  V30 19 1 22 23
M  V30 20 1 23 24
M  V30 21 1 22 25
M  V30 22 1 23 26
M  V30 23 1 24 27
M  V30 24 1 24 28
M  V30 25 1 29 30
M  V30 26 1 30 31
M  V30 27 1 29 32
M  V30 28 1 29 33
M  V30 29 1 30 34
M  V30 30 1 31 35
M  V30 31 1 31 36
M  V30 32 1 37 38
M  V30 33 1 38 39
M  V30 34 1 37 40
M  V30 35 1 37 41
M  V30 36 1 38 42
M  V30 37 1 39 43
M  V30 38 1 39 44
M  V30 39 1 45 46
M  V30 40 1 46 47
M  V30 41 1 45 48
M  V30 42 1 45 49
M  V30 43 1 46 50
M  V30 44 1 47 51
M  V30 45 1 47 52
M  V30 46 1 53 54
M  V30 47 1 54 55
M  V30 48 1 53 56
M  V30 49 1 53 57
M  V30 50 1 54 58
M  V30 51 1 55 59
M  V30 52 1 55 60
M  V30 53 1 61 62
M  V30 54 1 62 63
M  V30 55 1 61 64
M  V30 56 1 61 65
M  V30 57 1 62 66
M  V30 58 1 63 67
M  V30 59 1 63 68
M  V30 60 1 69 70
M  V30 61 1 70 71
M  V30 62 1 69 72
M  V30 63 1 69 73
M  V30 64 1 70 74
M  V30 65 1 71 75
M  V30 66 1 71 76
M  V30 67 1 1 37
M  V30 68 1 1 45
M  V30 69 1 3 61
M  V30 70 1 8 53
M  V30 71 1 8 39
M  V30 72 1 10 69
M  V30 73 1 15 29
M  V30 74 1 15 31
M  V30 75 1 17 55
M  V30 76 1 22 71
M  V30 77 1 22 47
M  V30 78 1 24 63
M  V30 END BOND
M  V30 END CTAB
M  END

$$$$
