
     RDKit          3D

  0  0  0  0  0  0  0  0  0  0999 V3000
M  V30 BEGIN CTAB
M  V30 COUNTS 76 78 0 0 0
M  V30 BEGIN ATOM
M  V30 1 C 0.2724 -0.1323 0.3055 0
M  V30 2 B 0.3737 0.0335 0.3891 0
M  V30 3 C 0.3808 0.2336 0.3800 0
M  V30 4 H 0.3434 -0.2000 0.3879 0
M  V30 5 H 0.4732 0.0102 0.4736 0
M  V30 6 H 0.4961 0.2611 0.3042 0
M  V30 7 H 0.5035 0.2855 0.3715 0
M  V30 8 C 0.3476 0.2535 -0.3009 0
M  V30 9 B 0.3717 0.4232 -0.3893 0
M  V30 10 C 0.3923 0.4623 -0.5318 0
M  V30 11 H 0.3433 0.3002 -0.3800 0
M  V30 12 H 0.3687 0.5509 -0.3563 0
M  V30 13 H 0.4818 0.5558 -0.5621 0
M  V30 14 H 0.4179 0.5930 -0.5467 0
M  V30 15 C -0.0001 -0.1612 -0.1797 0
M  V30 16 B -0.1223 -0.0845 0.0905 0
M  V30 17 C -0.1905 0.0302 0.3462 0
M  V30 18 H -0.0636 -0.2319 -0.2408 0
M  V30 19 H -0.2132 -0.1165 0.1247 0
M  V30 20 H -0.2467 0.0026 0.4595 0
M  V30 21 H -0.3016 0.0314 0.4201 0
M  V30 22 C -0.7037 -0.1263 0.0152 0
M  V30 23 B -0.5506 -0.3447 0.0450 0
M  V30 24 C -0.4012 -0.5521 0.0709 0
M  V30 25 H -0.8011 -0.1723 0.0303 0
M  V30 26 H -0.5631 -0.4064 0.1040 0
M  V30 27 H -0.3405 -0.6285 -0.0200 0
M  V30 28 H -0.3414 -0.6491 0.0460 0
M  V30 29 C 0.1139 -0.3806 0.3153 0
M  V30 30 N -0.0742 -0.5574 0.2636 0
M  V30 31 C -0.2584 -0.6669 0.1790 0
M  V30 32 H 0.0934 -0.4642 0.3938 0
M  V30 33 H 0.1768 -0.4763 0.3836 0
M  V30 34 H -0.1339 -0.6539 0.2851 0
M  V30 35 H -0.2966 -0.7955 0.2191 0
M  V30 36 H -0.2841 -0.8036 0.1500 0
M  V30 37 C 0.3144 0.2964 -0.6169 0
M  V30 38 N 0.1844 0.1052 -0.5686 0
M  V30 39 C 0.0652 -0.0655 -0.4263 0
M  V30 40 H 0.3258 0.3403 -0.7452 0
M  V30 41 H 0.3992 0.3300 -0.7028 0
M  V30 42 H 0.1822 0.1005 -0.7002 0
M  V30 43 H 0.0625 -0.1326 -0.5369 0
M  V30 44 H -0.0022 -0.0923 -0.5310 0
M  V30 45 C -0.8660 -0.0277 -0.0394 0
M  V30 46 N -0.8477 0.1042 -0.0555 0
M  V30 47 C -0.7558 0.0675 0.0214 0
M  V30 48 H -1.0000 -0.0298 -0.0253 0
M  V30 49 H -0.9842 -0.0352 -0.0996 0
M  V30 50 H -0.9053 0.2027 -0.1082 0
M  V30 51 H -0.7232 0.1865 0.0517 0
M  V30 52 H -0.8374 0.1510 0.0637 0
M  V30 53 C 0.3417 0.0692 0.1795 0
M  V30 54 N 0.3297 0.2581 0.0299 0
M  V30 55 C 0.2910 0.3639 -0.1479 0
M  V30 56 H 0.4611 0.0524 0.1814 0
M  V30 57 H 0.4156 0.1044 0.2389 0
M  V30 58 H 0.3832 0.3698 0.0452 0
M  V30 59 H 0.2312 0.4954 -0.1418 0
M  V30 60 H 0.2386 0.4752 -0.2008 0
M  V30 61 C 0.2084 0.3461 0.4469 0
M  V30 62 N 0.0215 0.3090 0.5326 0
M  V30 63 C -0.1429 0.1908 0.5197 0
M  V30 64 H 0.1911 0.4638 0.4573 0
M  V30 65 H 0.2425 0.4547 0.4090 0
M  V30 66 H 0.0064 0.3880 0.6386 0
M  V30 67 H -0.2247 0.2519 0.6095 0
M  V30 68 H -0.1772 0.2114 0.6492 0
M  V30 69 C 0.3743 0.0089 -0.3236 0
M  V30 70 N 0.3036 -0.1972 -0.2963 0
M  V30 71 C 0.1530 -0.3068 -0.2385 0
M  V30 72 H 0.4574 -0.0229 -0.4174 0
M  V30 73 H 0.4907 -0.0324 -0.3495 0
M  V30 74 H 0.3786 -0.3011 -0.3307 0
M  V30 75 H 0.1442 -0.4423 -0.2749 0
M  V30 76 H 0.2054 -0.4342 -0.2432 0
M  V30 END ATOM
M  V30 BEGIN BOND
M  V30 1 1 1 2
M  V30 2 1 2 3
M  V30 3 1 1 4
M  V30 4 1 2 5
M  V30 5 1 3 6
M  V30 6 1 3 7
M  V30 7 1 8 9
M  V30 8 1 9 10
M  V30 9 1 8 11
M  V30 10 1 9 12
M  V30 11 1 10 13
M  V30 12 1 10 14
M  V30 13 1 15 16
M  V30 14 1 16 17
M  V30 15 1 15 18
M  V30 16 1 16 19
M  V30 17 1 17 20
M  V30 18 1 17 21
M  V30 19 1 22 23
M  V30 20 1 23 24
M  V30 21 1 22 25
M  V30 22 1 23 26
M  V30 23 1 24 27
M  V30 24 1 24 28
M  V30 25 1 29 30
M  V30 26 1 30 31
M  V30 27 1 29 32
M  V30 28 1 29 33
M  V30 29 1 30 34
M  V30 30 1 31 35
M  V30 31 1 31 36
M  V30 32 1 37 38
M  V30 33 1 38 39
M  V30 34 1 37 40
M  V30 35 1 37 41
M  V30 36 1 38 42
M  V30 37 1 39 43
M  V30 38 1 39 44
M  V30 39 1 45 46
M  V30 40 1 46 47
M  V30 41 1 45 48
M  V30 42 1 45 49
M  V30 43 1 46 50
M  V30 44 1 47 51
M  V30 45 1 47 52
M  V30 46 1 53 54
M  V30 47 1 54 55
M  V30 48 1 53 56
M  V30 49 1 53 57
M  V30 50 1 54 58
M  V30 51 1 55 59
M  V30 52 1 55 60
M  V30 53 1 61 62
M  V30 54 1 62 63
M  V30 55 1 61 64
M  V30 56 1 61 65
M  V30 57 1 62 66
M  V30 58 1 63 67
M  V30 59 1 63 68
M  V30 60 1 69 70
M  V30 61 1 70 71
M  V30 62 1 69 72
M  V30 63 1 69 73
M  V30 64 1 70 74
M  V30 65 1 71 75
M  V30 66 1 71 76
M  V30 67 1 1 29
M  V30 68 1 1 53
M  V30 69 1 3 61
M  V30 70 1 8 69
M  V30 71 1 8 55
M  V30 72 1 10 37
M  V30 73 1 15 39
M  V30 74 1 15 71
M  V30 75 1 17 63
M  V30 76 1 22 45
M  V30 77 1 22 47
M  V30 78 1 24 31
M  V30 END BOND
M  V30 END CTAB
M  END

$$$$
