
     RDKit          3D

  0  0  0  0  0  0  0  0  0  0999 V3000
M  V30 BEGIN CTAB
M  V30 COUNTS 76 78 0 0 0
M  V30 BEGIN ATOM
M  V30 1 C -1.8157 1.6698 -1.1702 0
M  V30 2 B -2.5836 2.1290 -0.6087 0
M  V30 3 C -3.3055 2.2813 0.0829 0
M  V30 4 H -2.1528 2.0550 -1.9187 0
M  V30 5 H -3.0032 2.8122 -1.1378 0
M  V30 6 H -3.9874 2.8478 -0.3168 0
M  V30 7 H -3.3231 3.1542 0.4550 0
M  V30 8 C 3.1629 -1.7087 0.7405 0
M  V30 9 B 2.3312 -2.3066 0.9044 0
M  V30 10 C 1.4219 -2.7356 0.9683 0
M  V30 11 H 3.7516 -2.3650 1.0410 0
M  V30 12 H 2.7580 -3.0786 1.2711 0
M  V30 13 H 1.6391 -3.6106 0.5911 0
M  V30 14 H 1.5611 -3.2017 1.8064 0
M  V30 15 C -2.1822 -1.6388 0.0807 0
M  V30 16 B -2.9812 -1.4599 0.7481 0
M  V30 17 C -3.6669 -0.9802 1.3158 0
M  V30 18 H -2.6402 -2.3458 -0.2550 0
M  V30 19 H -3.5611 -2.2255 0.7668 0
M  V30 20 H -3.8246 -1.3716 2.1659 0
M  V30 21 H -4.4719 -1.5253 1.3363 0
M  V30 22 C 3.4771 1.1277 -0.3318 0
M  V30 23 B 2.7896 1.8316 -0.6604 0
M  V30 24 C 1.9866 2.3617 -0.9586 0
M  V30 25 H 4.2009 1.6915 -0.4921 0
M  V30 26 H 3.3821 2.5538 -0.8604 0
M  V30 27 H 2.2728 3.2242 -0.6223 0
M  V30 28 H 2.3395 2.7134 -1.7992 0
M  V30 29 C 3.7098 0.9035 0.6616 0
M  V30 30 N 3.6333 0.0677 1.2437 0
M  V30 31 C 3.5057 -0.9391 1.3582 0
M  V30 32 H 3.9113 1.5472 1.3215 0
M  V30 33 H 4.5745 1.2655 0.8768 0
M  V30 34 H 4.0611 0.3315 2.0667 0
M  V30 35 H 3.6275 -1.0165 2.2908 0
M  V30 36 H 4.2982 -1.2289 1.8198 0
M  V30 37 C 3.6339 -1.5331 -0.1749 0
M  V30 38 N 3.7983 -0.7035 -0.7478 0
M  V30 39 C 3.8381 0.3098 -0.8716 0
M  V30 40 H 4.4660 -2.0123 -0.2034 0
M  V30 41 H 3.8822 -2.2089 -0.7871 0
M  V30 42 H 4.3421 -1.0374 -1.4716 0
M  V30 43 H 4.7424 0.4820 -1.1463 0
M  V30 44 H 4.1665 0.3556 -1.7566 0
M  V30 45 C 0.4130 -2.8097 0.9864 0
M  V30 46 N -0.4829 -2.6485 0.5631 0
M  V30 47 C -1.4093 -2.2855 0.4011 0
M  V30 48 H 0.3728 -3.7645 1.0419 0
M  V30 49 H 0.2635 -3.0871 1.9046 0
M  V30 50 H -0.5749 -3.5528 0.1756 0
M  V30 51 H -1.7080 -2.7772 1.1108 0
M  V30 52 H -1.6891 -3.1433 0.0412 0
M  V30 53 C -4.0513 -0.0555 1.4691 0
M  V30 54 N -3.9951 0.9320 1.2946 0
M  V30 55 C -3.8480 1.7792 0.7757 0
M  V30 56 H -4.3089 -0.0516 2.3868 0
M  V30 57 H -5.0000 -0.2025 1.4577 0
M  V30 58 H -4.4241 1.2712 2.0662 0
M  V30 59 H -4.7492 2.0612 0.6021 0
M  V30 60 H -4.0341 2.4264 1.4503 0
M  V30 61 C -2.0465 0.7134 -1.5757 0
M  V30 62 N -2.1635 -0.2785 -1.3707 0
M  V30 63 C -2.2540 -1.1605 -0.8672 0
M  V30 64 H -2.0049 0.6489 -2.5380 0
M  V30 65 H -2.6971 0.8099 -2.2909 0
M  V30 66 H -2.4970 -0.5799 -2.2654 0
M  V30 67 H -2.2706 -1.7513 -1.6306 0
M  V30 68 H -2.9611 -1.5746 -1.3895 0
M  V30 69 C -0.9120 2.2042 -1.2965 0
M  V30 70 N 0.0761 2.3979 -1.3450 0
M  V30 71 C 1.0145 2.6211 -1.0669 0
M  V30 72 H -1.0474 2.6494 -2.1491 0
M  V30 73 H -1.0587 3.0858 -1.1066 0
M  V30 74 H 0.1316 2.8227 -2.2354 0
M  V30 75 H 0.9880 3.4537 -0.5684 0
M  V30 76 H 1.1624 3.3634 -1.6530 0
M  V30 END ATOM
M  V30 BEGIN BOND
M  V30 1 1 1 2
M  V30 2 1 2 3
M  V30 3 1 1 4
M  V30 4 1 2 5
M  V30 5 1 3 6
M  V30 6 1 3 7
M  V30 7 1 8 9
M  V30 8 1 9 10
M  V30 9 1 8 11
M  V30 10 1 9 12
M  V30 11 1 10 13
M  V30 12 1 10 14
M  V30 13 1 15 16
M  V30 14 1 16 17
M  V30 15 1 15 18
M  V30 16 1 16 19
M  V30 17 1 17 20
M  V30 18 1 17 21
M  V30 19 1 22 23
M  V30 20 1 23 24
M  V30 21 1 22 25
M  V30 22 1 23 26
M  V30 23 1 24 27
M  V30 24 1 24 28
M  V30 25 1 29 30
M  V30 26 1 30 31
M  V30 27 1 29 32
M  V30 28 1 29 33
M  V30 29 1 30 34
M  V30 30 1 31 35
M  V30 31 1 31 36
M  V30 32 1 37 38
M  V30 33 1 38 39
M  V30 34 1 37 40
M  V30 35 1 37 41
M  V30 36 1 38 42
M  V30 37 1 39 43
M  V30 38 1 39 44
M  V30 39 1 45 46
M  V30 40 1 46 47
M  V30 41 1 45 48
M  V30 42 1 45 49
M  V30 43 1 46 50
M  V30 44 1 47 51
M  V30 45 1 47 52
M  V30 46 1 53 54
M  V30 47 1 54 55
M  V30 48 1 53 56
M  V30 49 1 53 57
M  V30 50 1 54 58
M  V30 51 1 55 59
M  V30 52 1 55 60
M  V30 53 1 61 62
M  V30 54 1 62 63
M  V30 55 1 61 64
M  V30 56 1 61 65
M  V30 57 1 62 66
M  V30 58 1 63 67
M  V30 59 1 63 68
M  V30 60 1 69 70
M  V30 61 1 70 71
M  V30 62 1 69 72
M  V30 63 1 69 73
M  V30 64 1 70 74
M  V30 65 1 71 75
M  V30 66 1 71 76
M  V30 67 1 1 61
M  V30 68 1 1 69
M  V30 69 1 3 55
M  V30 70 1 8 31
M  V30 71 1 8 37
M  V30 72 1 10 45
M  V30 73 1 15 47
M  V30 74 1 17 53
M  V30 75 1 15 63
M  V30 76 1 22 29
M  V30 77 1 22 39
M  V30 78 1 24 71
M  V30 END BOND
M  V30 END CTAB
M  END

$$$$
