
     RDKit          3D

  0  0  0  0  0  0  0  0  0  0999 V3000
M  V30 BEGIN CTAB
M  V30 COUNTS 76 78 0 0 0
M  V30 BEGIN ATOM
M  V30 1 C 0.4156 0.2927 -0.0335 0
M  V30 2 B 0.1837 0.5318 -0.1909 0
M  V30 3 C -0.0906 0.7009 -0.3260 0
M  V30 4 H 0.5154 0.3902 0.0096 0
M  V30 5 H 0.2400 0.6640 -0.2368 0
M  V30 6 H -0.0831 0.7986 -0.4383 0
M  V30 7 H -0.0835 0.8475 -0.3609 0
M  V30 8 C 0.4083 -0.0984 -0.4390 0
M  V30 9 B 0.2416 -0.3543 -0.5117 0
M  V30 10 C 0.0379 -0.5743 -0.5019 0
M  V30 11 H 0.4752 -0.1405 -0.5592 0
M  V30 12 H 0.2852 -0.4213 -0.6343 0
M  V30 13 H 0.0074 -0.6294 -0.6355 0
M  V30 14 H 0.0649 -0.6899 -0.5954 0
M  V30 15 C -0.3260 0.3659 0.2288 0
M  V30 16 B -0.6023 0.4714 0.1438 0
M  V30 17 C -0.8165 0.5458 -0.0061 0
M  V30 18 H -0.4074 0.4405 0.3244 0
M  V30 19 H -0.7095 0.5282 0.2217 0
M  V30 20 H -0.9618 0.5249 0.0200 0
M  V30 21 H -0.9436 0.6196 0.0325 0
M  V30 22 C -0.0632 -0.7460 0.4128 0
M  V30 23 B 0.0433 -0.7115 0.6350 0
M  V30 24 C 0.1530 -0.5262 0.7388 0
M  V30 25 H -0.1083 -0.8819 0.4730 0
M  V30 26 H 0.0429 -0.8344 0.7412 0
M  V30 27 H 0.2026 -0.5523 0.8848 0
M  V30 28 H 0.2259 -0.6212 0.8446 0
M  V30 29 C 0.6811 0.2699 -0.1419 0
M  V30 30 N 0.7707 0.1282 -0.3007 0
M  V30 31 C 0.6767 -0.0289 -0.4326 0
M  V30 32 H 0.8270 0.3149 -0.0997 0
M  V30 33 H 0.8084 0.3619 -0.1722 0
M  V30 34 H 0.9258 0.1442 -0.3377 0
M  V30 35 H 0.8103 -0.0988 -0.4780 0
M  V30 36 H 0.7947 -0.0340 -0.5391 0
M  V30 37 C 0.0616 -0.5224 0.4219 0
M  V30 38 N 0.2451 -0.2724 0.3190 0
M  V30 39 C 0.3825 0.0134 0.1831 0
M  V30 40 H 0.0012 -0.6225 0.5006 0
M  V30 41 H -0.0241 -0.5508 0.5397 0
M  V30 42 H 0.3252 -0.3609 0.3750 0
M  V30 43 H 0.5110 -0.0180 0.2375 0
M  V30 44 H 0.4740 0.0527 0.2884 0
M  V30 45 C -0.2085 -0.8517 0.1752 0
M  V30 46 N -0.2314 -0.8165 -0.1022 0
M  V30 47 C -0.1644 -0.7122 -0.3533 0
M  V30 48 H -0.2467 -1.0000 0.1844 0
M  V30 49 H -0.3224 -0.9500 0.2023 0
M  V30 50 H -0.3160 -0.9317 -0.1383 0
M  V30 51 H -0.2974 -0.7446 -0.4028 0
M  V30 52 H -0.2463 -0.7437 -0.4667 0
M  V30 53 C -0.8499 0.6157 -0.2276 0
M  V30 54 N -0.6598 0.7164 -0.3513 0
M  V30 55 C -0.3924 0.7636 -0.3911 0
M  V30 56 H -0.9781 0.5663 -0.2986 0
M  V30 57 H -0.9968 0.6421 -0.2624 0
M  V30 58 H -0.7613 0.7901 -0.4337 0
M  V30 59 H -0.4429 0.8981 -0.4391 0
M  V30 60 H -0.4403 0.8433 -0.5106 0
M  V30 61 C -0.1826 0.1455 0.3530 0
M  V30 62 N -0.0022 -0.0632 0.4829 0
M  V30 63 C 0.1494 -0.2734 0.6420 0
M  V30 64 H -0.2595 0.0969 0.2795 0
M  V30 65 H -0.2377 0.2030 0.3123 0
M  V30 66 H -0.0103 -0.1235 0.4362 0
M  V30 67 H 0.2891 -0.2956 0.6875 0
M  V30 68 H 0.2439 -0.2374 0.7472 0
M  V30 69 C 0.2824 0.1360 -0.2967 0
M  V30 70 N 0.1152 0.3091 -0.0811 0
M  V30 71 C -0.0892 0.4214 0.1163 0
M  V30 72 H 0.3700 0.1883 -0.3826 0
M  V30 73 H 0.2836 0.1719 -0.4274 0
M  V30 74 H 0.1599 0.4239 -0.0442 0
M  V30 75 H -0.1134 0.5317 0.2196 0
M  V30 76 H -0.0625 0.5634 0.1666 0
M  V30 END ATOM
M  V30 BEGIN BOND
M  V30 1 1 1 2
M  V30 2 1 2 3
M  V30 3 1 1 4
M  V30 4 1 2 5
M  V30 5 1 3 6
M  V30 6 1 3 7
M  V30 7 1 8 9
M  V30 8 1 9 10
M  V30 9 1 8 11
M  V30 10 1 9 12
M  V30 11 1 10 13
M  V30 12 1 10 14
M  V30 13 1 15 16
M  V30 14 1 16 17
M  V30 15 1 15 18
M  V30 16 1 16 19
M  V30 17 1 17 20
M  V30 18 1 17 21
M  V30 19 1 22 23
M  V30 20 1 23 24
M  V30 21 1 22 25
M  V30 22 1 23 26
M  V30 23 1 24 27
M  V30 24 1 24 28
M  V30 25 1 29 30
M  V30 26 1 30 31
M  V30 27 1 29 32
M  V30 28 1 29 33
M  V30 29 1 30 34
M  V30 30 1 31 35
M  V30 31 1 31 36
M  V30 32 1 37 38
M  V30 33 1 38 39
M  V30 34 1 37 40
M  V30 35 1 37 41
M  V30 36 1 38 42
M  V30 37 1 39 43
M  V30 38 1 39 44
M  V30 39 1 45 46
M  V30 40 1 46 47
M  V30 41 1 45 48
M  V30 42 1 45 49
M  V30 43 1 46 50
M  V30 44 1 47 51
M  V30 45 1 47 52
M  V30 46 1 53 54
M  V30 47 1 54 55
M  V30 48 1 53 56
M  V30 49 1 53 57
M  V30 50 1 54 58
M  V30 51 1 55 59
M  V30 52 1 55 60
M  V30 53 1 61 62
M  V30 54 1 62 63
M  V30 55 1 61 64
M  V30 56 1 61 65
M  V30 57 1 62 66
M  V30 58 1 63 67
M  V30 59 1 63 68
M  V30 60 1 69 70
M  V30 61 1 70 71
M  V30 62 1 69 72
M  V30 63 1 69 73
M  V30 64 1 70 74
M  V30 65 1 71 75
M  V30 66 1 71 76
M  V30 67 1 1 29
M  V30 68 1 3 55
M  V30 69 1 1 39
M  V30 70 1 8 69
M  V30 71 1 10 47
M  V30 72 1 8 31
M  V30 73 1 15 61
M  V30 74 1 15 71
M  V30 75 1 17 53
M  V30 76 1 22 45
M  V30 77 1 24 63
M  V30 78 1 22 37
M  V30 END BOND
M  V30 END CTAB
M  END

$$$$
