
     RDKit          3D

  0  0  0  0  0  0  0  0  0  0999 V3000
M  V30 BEGIN CTAB
M  V30 COUNTS 76 78 0 0 0
M  V30 BEGIN ATOM
M  V30 1 C 1.4706 1.5142 0.4162 0
M  V30 2 B 2.2668 1.3665 0.2506 0
M  V30 3 C 2.9991 1.0734 0.3214 0
M  V30 4 H 1.5629 2.1960 0.2158 0
M  V30 5 H 2.5488 1.9350 -0.1501 0
M  V30 6 H 3.4694 1.6384 0.1406 0
M  V30 7 H 3.3492 0.9649 -0.3212 0
M  V30 8 C -0.8834 -0.0209 -0.3641 0
M  V30 9 B -1.0380 -0.3613 0.3669 0
M  V30 10 C -0.9292 -0.8055 1.0159 0
M  V30 11 H -1.4305 0.4187 -0.2556 0
M  V30 12 H -1.7090 -0.0973 0.6320 0
M  V30 13 H -0.9725 -1.5391 0.9115 0
M  V30 14 H -1.6071 -0.9428 1.2942 0
M  V30 15 C -3.4581 -1.3762 -3.4558 0
M  V30 16 B -2.8830 -1.2908 -2.9811 0
M  V30 17 C -2.2735 -0.9015 -2.7453 0
M  V30 18 H -3.9434 -1.8186 -3.0898 0
M  V30 19 H -2.8771 -2.0102 -2.7983 0
M  V30 20 H -1.7942 -1.3568 -3.0606 0
M  V30 21 H -1.9830 -0.5923 -3.3550 0
M  V30 22 C 1.2173 0.1419 2.6222 0
M  V30 23 B 1.9784 -0.1608 2.7214 0
M  V30 24 C 2.7524 -0.2900 2.6023 0
M  V30 25 H 1.1356 0.2033 3.3233 0
M  V30 26 H 2.0507 -0.4031 3.4127 0
M  V30 27 H 2.9593 -0.9752 2.8207 0
M  V30 28 H 3.0810 -0.2564 3.2724 0
M  V30 29 C -3.4174 -1.7628 -4.1228 0
M  V30 30 N -3.9958 -1.4007 -4.4102 0
M  V30 31 C -4.0329 -1.0009 -3.7841 0
M  V30 32 H -3.0612 -1.9132 -4.7300 0
M  V30 33 H -3.5257 -2.4806 -4.2345 0
M  V30 34 H -4.3345 -1.4158 -5.0000 0
M  V30 35 H -4.7403 -0.9950 -3.5857 0
M  V30 36 H -4.3076 -0.4068 -4.0706 0
M  V30 37 C 0.9107 1.3815 -0.1633 0
M  V30 38 N 0.2357 1.0862 -0.4042 0
M  V30 39 C -0.3636 0.5992 -0.5106 0
M  V30 40 H 1.2292 1.4424 -0.8139 0
M  V30 41 H 0.8126 2.0833 -0.4543 0
M  V30 42 H 0.0213 1.7181 -0.7890 0
M  V30 43 H -0.0808 0.5246 -1.1436 0
M  V30 44 H -0.8032 1.2126 -0.6115 0
M  V30 45 C 1.2840 1.7629 1.1904 0
M  V30 46 N 1.1856 1.4942 1.9382 0
M  V30 47 C 1.1683 0.9681 2.5389 0
M  V30 48 H 1.5331 2.4537 1.3207 0
M  V30 49 H 0.9525 2.4392 1.2897 0
M  V30 50 H 1.0582 2.1428 2.3358 0
M  V30 51 H 0.8053 1.3444 3.0978 0
M  V30 52 H 1.3943 1.3698 3.1239 0
M  V30 53 C -1.1672 -0.4289 -1.0054 0
M  V30 54 N -1.7861 -0.4252 -1.4768 0
M  V30 55 C -2.1286 -0.4169 -2.1555 0
M  V30 56 H -1.0771 -1.1351 -1.0058 0
M  V30 57 H -0.6918 -0.7627 -1.4329 0
M  V30 58 H -2.4232 -0.4577 -1.1244 0
M  V30 59 H -2.0927 0.2060 -2.5437 0
M  V30 60 H -2.7231 0.0219 -2.0504 0
M  V30 61 C 3.4674 0.6330 0.7875 0
M  V30 62 N 3.5349 0.1742 1.4216 0
M  V30 63 C 3.3670 -0.0803 2.1455 0
M  V30 64 H 3.9588 0.2960 0.3400 0
M  V30 65 H 4.0926 1.0351 0.8419 0
M  V30 66 H 4.1556 -0.1971 1.2857 0
M  V30 67 H 3.8705 -0.6095 2.2490 0
M  V30 68 H 3.9122 0.1978 2.5877 0
M  V30 69 C -0.6213 -0.8583 1.7351 0
M  V30 70 N 0.0267 -0.7688 2.1511 0
M  V30 71 C 0.5558 -0.3582 2.5694 0
M  V30 72 H -0.8186 -1.5439 1.9669 0
M  V30 73 H -1.1985 -0.8038 2.2470 0
M  V30 74 H 0.0648 -1.4766 2.4231 0
M  V30 75 H 0.1457 -0.2625 3.2085 0
M  V30 76 H 0.5893 -0.8791 3.0648 0
M  V30 END ATOM
M  V30 BEGIN BOND
M  V30 1 1 1 2
M  V30 2 1 2 3
M  V30 3 1 1 4
M  V30 4 1 2 5
M  V30 5 1 3 6
M  V30 6 1 3 7
M  V30 7 1 8 9
M  V30 8 1 9 10
M  V30 9 1 8 11
M  V30 10 1 9 12
M  V30 11 1 10 13
M  V30 12 1 10 14
M  V30 13 1 15 16
M  V30 14 1 16 17
M  V30 15 1 15 18
M  V30 16 1 16 19
M  V30 17 1 17 20
M  V30 18 1 17 21
M  V30 19 1 22 23
M  V30 20 1 23 24
M  V30 21 1 22 25
M  V30 22 1 23 26
M  V30 23 1 24 27
M  V30 24 1 24 28
M  V30 25 1 29 30
M  V30 26 1 30 31
M  V30 27 1 29 32
M  V30 28 1 29 33
M  V30 29 1 30 34
M  V30 30 1 31 35
M  V30 31 1 31 36
M  V30 32 1 37 38
M  V30 33 1 38 39
M  V30 34 1 37 40
M  V30 35 1 37 41
M  V30 36 1 38 42
M  V30 37 1 39 43
M  V30 38 1 39 44
M  V30 39 1 45 46
M  V30 40 1 46 47
M  V30 41 1 45 48
M  V30 42 1 45 49
M  V30 43 1 46 50
M  V30 44 1 47 51
M  V30 45 1 47 52
M  V30 46 1 53 54
M  V30 47 1 54 55
M  V30 48 1 53 56
M  V30 49 1 53 57
M  V30 50 1 54 58
M  V30 51 1 55 59
M  V30 52 1 55 60
M  V30 53 1 61 62
M  V30 54 1 62 63
M  V30 55 1 61 64
M  V30 56 1 61 65
M  V30 57 1 62 66
M  V30 58 1 63 67
M  V30 59 1 63 68
M  V30 60 1 69 70
M  V30 61 1 70 71
M  V30 62 1 69 72
M  V30 63 1 69 73
M  V30 64 1 70 74
M  V30 65 1 71 75
M  V30 66 1 71 76
M  V30 67 1 1 37
M  V30 68 1 1 45
M  V30 69 1 3 61
M  V30 70 1 8 53
M  V30 71 1 8 39
M  V30 72 1 10 69
M  V30 73 1 15 29
M  V30 74 1 15 31
M  V30 75 1 17 55
M  V30 76 1 22 71
M  V30 77 1 22 47
M  V30 78 1 24 63
M  V30 END BOND
M  V30 END CTAB
M  END

$$$$
