
     RDKit          3D

  0  0  0  0  0  0  0  0  0  0999 V3000
M  V30 BEGIN CTAB
M  V30 COUNTS 76 78 0 0 0
M  V30 BEGIN ATOM
M  V30 1 C -0.0293 -0.3137 -0.1391 0
M  V30 2 B -0.2878 -0.2587 -0.1246 0
M  V30 3 C -0.5149 -0.1573 -0.0868 0
M  V30 4 H -0.0736 -0.3628 -0.2190 0
M  V30 5 H -0.3655 -0.3305 -0.1740 0
M  V30 6 H -0.5114 -0.1090 -0.0209 0
M  V30 7 H -0.5259 -0.1925 0.0186 0
M  V30 8 C 0.3869 0.5290 -0.1618 0
M  V30 9 B 0.4103 0.4644 -0.3945 0
M  V30 10 C 0.4159 0.3106 -0.5702 0
M  V30 11 H 0.4548 0.6382 -0.1865 0
M  V30 12 H 0.4242 0.5641 -0.4704 0
M  V30 13 H 0.3186 0.3294 -0.6514 0
M  V30 14 H 0.3740 0.3695 -0.6839 0
M  V30 15 C -0.2926 0.3918 0.4416 0
M  V30 16 B -0.5281 0.4518 0.3220 0
M  V30 17 C -0.7303 0.4559 0.1684 0
M  V30 18 H -0.3350 0.4558 0.5375 0
M  V30 19 H -0.5992 0.5354 0.3796 0
M  V30 20 H -0.8252 0.5374 0.1980 0
M  V30 21 H -0.7813 0.5562 0.1138 0
M  V30 22 C 0.4158 -0.5612 -0.1117 0
M  V30 23 B 0.3224 -0.5926 0.1637 0
M  V30 24 C 0.1800 -0.5554 0.4060 0
M  V30 25 H 0.5213 -0.6388 -0.1265 0
M  V30 26 H 0.3942 -0.6867 0.2219 0
M  V30 27 H 0.1734 -0.6736 0.4692 0
M  V30 28 H 0.2316 -0.6330 0.5005 0
M  V30 29 C 0.1936 -0.1247 -0.0991 0
M  V30 30 N 0.3589 0.0952 -0.0894 0
M  V30 31 C 0.4539 0.3284 -0.1080 0
M  V30 32 H 0.2861 -0.1553 -0.1226 0
M  V30 33 H 0.2599 -0.1343 -0.0248 0
M  V30 34 H 0.4732 0.0997 -0.0515 0
M  V30 35 H 0.5582 0.3902 -0.0560 0
M  V30 36 H 0.5836 0.3584 -0.1199 0
M  V30 37 C 0.3107 -0.7191 -0.1324 0
M  V30 38 N 0.1344 -0.7149 -0.1751 0
M  V30 39 C -0.0019 -0.5637 -0.1759 0
M  V30 40 H 0.3530 -0.7820 -0.0594 0
M  V30 41 H 0.3454 -0.8369 -0.1359 0
M  V30 42 H 0.1165 -0.8474 -0.2120 0
M  V30 43 H -0.0661 -0.6783 -0.1736 0
M  V30 44 H -0.0688 -0.6494 -0.2469 0
M  V30 45 C 0.5085 -0.3889 -0.3465 0
M  V30 46 N 0.5210 -0.1552 -0.5091 0
M  V30 47 C 0.4993 0.0918 -0.6033 0
M  V30 48 H 0.5679 -0.4469 -0.4478 0
M  V30 49 H 0.6237 -0.4427 -0.3889 0
M  V30 50 H 0.5855 -0.1671 -0.6158 0
M  V30 51 H 0.5449 0.1792 -0.6723 0
M  V30 52 H 0.5474 0.1039 -0.7267 0
M  V30 53 C -0.8709 0.3392 0.0345 0
M  V30 54 N -0.8557 0.1457 -0.0546 0
M  V30 55 C -0.7317 -0.0384 -0.1026 0
M  V30 56 H -1.0000 0.3669 0.0437 0
M  V30 57 H -0.9730 0.4049 -0.0205 0
M  V30 58 H -0.9783 0.1435 -0.0943 0
M  V30 59 H -0.8187 -0.0549 -0.1836 0
M  V30 60 H -0.8105 -0.1201 -0.1270 0
M  V30 61 C -0.2233 0.1304 0.5763 0
M  V30 62 N -0.1166 -0.1426 0.6058 0
M  V30 63 C 0.0161 -0.3928 0.5637 0
M  V30 64 H -0.2914 0.1315 0.6843 0
M  V30 65 H -0.2182 0.1572 0.7010 0
M  V30 66 H -0.1418 -0.1713 0.7262 0
M  V30 67 H 0.0177 -0.4381 0.6865 0
M  V30 68 H -0.0191 -0.4892 0.6478 0
M  V30 69 C 0.2623 0.6703 0.0266 0
M  V30 70 N 0.0816 0.6701 0.2096 0
M  V30 71 C -0.1125 0.5845 0.3642 0
M  V30 72 H 0.3301 0.7784 0.0640 0
M  V30 73 H 0.2791 0.8001 0.0070 0
M  V30 74 H 0.1002 0.7891 0.2505 0
M  V30 75 H -0.1436 0.7016 0.4049 0
M  V30 76 H -0.0941 0.6704 0.4594 0
M  V30 END ATOM
M  V30 BEGIN BOND
M  V30 1 1 1 2
M  V30 2 1 2 3
M  V30 3 1 1 4
M  V30 4 1 2 5
M  V30 5 1 3 6
M  V30 6 1 3 7
M  V30 7 1 8 9
M  V30 8 1 9 10
M  V30 9 1 8 11
M  V30 10 1 9 12
M  V30 11 1 10 13
M  V30 12 1 10 14
M  V30 13 1 15 16
M  V30 14 1 16 17
M  V30 15 1 15 18
M  V30 16 1 16 19
M  V30 17 1 17 20
M  V30 18 1 17 21
M  V30 19 1 22 23
M  V30 20 1 23 24
M  V30 21 1 22 25
M  V30 22 1 23 26
M  V30 23 1 24 27
M  V30 24 1 24 28
M  V30 25 1 29 30
M  V30 26 1 30 31
M  V30 27 1 29 32
M  V30 28 1 29 33
M  V30 29 1 30 34
M  V30 30 1 31 35
M  V30 31 1 31 36
M  V30 32 1 37 38
M  V30 33 1 38 39
M  V30 34 1 37 40
M  V30 35 1 37 41
M  V30 36 1 38 42
M  V30 37 1 39 43
M  V30 38 1 39 44
M  V30 39 1 45 46
M  V30 40 1 46 47
M  V30 41 1 45 48
M  V30 42 1 45 49
M  V30 43 1 46 50
M  V30 44 1 47 51
M  V30 45 1 47 52
M  V30 46 1 53 54
M  V30 47 1 54 55
M  V30 48 1 53 56
M  V30 49 1 53 57
M  V30 50 1 54 58
M  V30 51 1 55 59
M  V30 52 1 55 60
M  V30 53 1 61 62
M  V30 54 1 62 63
M  V30 55 1 61 64
M  V30 56 1 61 65
M  V30 57 1 62 66
M  V30 58 1 63 67
M  V30 59 1 63 68
M  V30 60 1 69 70
M  V30 61 1 70 71
M  V30 62 1 69 72
M  V30 63 1 69 73
M  V30 64 1 70 74
M  V30 65 1 71 75
M  V30 66 1 71 76
M  V30 67 1 1 29
M  V30 68 1 3 55
M  V30 69 1 1 39
M  V30 70 1 8 69
M  V30 71 1 10 47
M  V30 72 1 8 31
M  V30 73 1 15 61
M  V30 74 1 15 71
M  V30 75 1 17 53
M  V30 76 1 22 45
M  V30 77 1 24 63
M  V30 78 1 22 37
M  V30 END BOND
M  V30 END CTAB
M  END

$$$$
