
     RDKit          3D

  0  0  0  0  0  0  0  0  0  0999 V3000
M  V30 BEGIN CTAB
M  V30 COUNTS 76 78 0 0 0
M  V30 BEGIN ATOM
M  V30 1 C -0.0446 0.1421 -0.6031 0
M  V30 2 B 0.6837 -0.4444 -0.4395 0
M  V30 3 C 1.4695 -0.6497 0.0352 0
M  V30 4 H -0.4467 -0.1105 -0.7146 0
M  V30 5 H 0.6582 -0.8918 -0.7997 0
M  V30 6 H 1.6163 -0.4309 -0.4041 0
M  V30 7 H 1.6450 -0.9493 -0.3650 0
M  V30 8 C -1.1528 2.4168 -2.3105 0
M  V30 9 B 0.1650 3.0326 -2.0501 0
M  V30 10 C 1.4549 3.3745 -1.6479 0
M  V30 11 H -1.3311 2.9623 -2.5196 0
M  V30 12 H 0.1886 3.5623 -2.3287 0
M  V30 13 H 1.5647 3.9633 -1.8039 0
M  V30 14 H 1.8140 3.6854 -2.0128 0
M  V30 15 C -3.8263 -3.4009 1.1896 0
M  V30 16 B -4.0954 -2.5563 0.2861 0
M  V30 17 C -4.2200 -1.5709 -0.5612 0
M  V30 18 H -4.1027 -3.7350 1.1289 0
M  V30 19 H -4.5661 -2.8471 0.2329 0
M  V30 20 H -4.8033 -1.6550 -0.5606 0
M  V30 21 H -4.5495 -1.9084 -0.8519 0
M  V30 22 C 3.2831 0.9084 1.5086 0
M  V30 23 B 4.0365 0.0282 1.7537 0
M  V30 24 C 4.4188 -0.9050 1.9176 0
M  V30 25 H 3.7321 1.1465 1.8852 0
M  V30 26 H 4.6224 0.0361 1.9038 0
M  V30 27 H 4.8905 -1.3178 1.7902 0
M  V30 28 H 5.0000 -1.0925 2.1467 0
M  V30 29 C -3.4263 -4.1308 1.6377 0
M  V30 30 N -3.7208 -4.2864 2.1713 0
M  V30 31 C -3.9667 -3.7374 2.0143 0
M  V30 32 H -3.0720 -4.5385 1.8681 0
M  V30 33 H -3.3211 -4.7004 1.5583 0
M  V30 34 H -3.9110 -4.7710 2.5469 0
M  V30 35 H -4.0327 -3.5346 2.5343 0
M  V30 36 H -4.3776 -3.9303 2.4055 0
M  V30 37 C -0.5226 0.3981 -1.7869 0
M  V30 38 N -0.8360 1.0735 -2.6138 0
M  V30 39 C -1.0989 1.9198 -2.9824 0
M  V30 40 H -0.4637 0.1101 -2.3012 0
M  V30 41 H -0.8410 0.1231 -2.1628 0
M  V30 42 H -0.9208 0.9764 -3.2180 0
M  V30 43 H -1.0566 2.1051 -3.5998 0
M  V30 44 H -1.3866 2.2097 -3.4794 0
M  V30 45 C 0.1967 0.4413 0.5898 0
M  V30 46 N 1.0348 0.7121 1.4310 0
M  V30 47 C 2.1516 0.9103 1.8458 0
M  V30 48 H -0.2046 0.3208 0.9803 0
M  V30 49 H -0.1953 0.7351 0.8971 0
M  V30 50 H 0.7850 0.8530 1.9768 0
M  V30 51 H 2.1476 0.9386 2.4804 0
M  V30 52 H 2.2786 1.2828 2.3444 0
M  V30 53 C -2.4638 1.7575 -2.1261 0
M  V30 54 N -3.3784 0.7274 -1.7456 0
M  V30 55 C -4.0129 -0.4126 -1.2442 0
M  V30 56 H -2.9095 1.9912 -2.4983 0
M  V30 57 H -2.8860 2.1935 -2.1525 0
M  V30 58 H -3.9065 0.8851 -1.9596 0
M  V30 59 H -4.5970 -0.3022 -1.2582 0
M  V30 60 H -4.4881 -0.5150 -1.5894 0
M  V30 61 C 2.0430 -0.7226 0.9058 0
M  V30 62 N 2.8859 -1.2042 1.5346 0
M  V30 63 C 3.8155 -1.4616 1.9824 0
M  V30 64 H 2.0491 -0.2660 1.0140 0
M  V30 65 H 1.6740 -0.4736 1.2281 0
M  V30 66 H 2.8884 -1.5934 1.9056 0
M  V30 67 H 4.1583 -1.7751 2.4421 0
M  V30 68 H 4.0406 -2.0203 2.1747 0
M  V30 69 C 2.5240 3.2708 -0.9594 0
M  V30 70 N 3.1223 2.6318 -0.1230 0
M  V30 71 C 3.3721 1.7147 0.6397 0
M  V30 72 H 2.9771 3.6258 -1.2235 0
M  V30 73 H 2.8287 3.8192 -0.9206 0
M  V30 74 H 3.5566 2.9969 0.0224 0
M  V30 75 H 3.6603 1.4550 0.2826 0
M  V30 76 H 3.7018 1.4044 0.7255 0
M  V30 END ATOM
M  V30 BEGIN BOND
M  V30 1 1 1 2
M  V30 2 1 2 3
M  V30 3 1 1 4
M  V30 4 1 2 5
M  V30 5 1 3 6
M  V30 6 1 3 7
M  V30 7 1 8 9
M  V30 8 1 9 10
M  V30 9 1 8 11
M  V30 10 1 9 12
M  V30 11 1 10 13
M  V30 12 1 10 14
M  V30 13 1 15 16
M  V30 14 1 16 17
M  V30 15 1 15 18
M  V30 16 1 16 19
M  V30 17 1 17 20
M  V30 18 1 17 21
M  V30 19 1 22 23
M  V30 20 1 23 24
M  V30 21 1 22 25
M  V30 22 1 23 26
M  V30 23 1 24 27
M  V30 24 1 24 28
M  V30 25 1 29 30
M  V30 26 1 30 31
M  V30 27 1 29 32
M  V30 28 1 29 33
M  V30 29 1 30 34
M  V30 30 1 31 35
M  V30 31 1 31 36
M  V30 32 1 37 38
M  V30 33 1 38 39
M  V30 34 1 37 40
M  V30 35 1 37 41
M  V30 36 1 38 42
M  V30 37 1 39 43
M  V30 38 1 39 44
M  V30 39 1 45 46
M  V30 40 1 46 47
M  V30 41 1 45 48
M  V30 42 1 45 49
M  V30 43 1 46 50
M  V30 44 1 47 51
M  V30 45 1 47 52
M  V30 46 1 53 54
M  V30 47 1 54 55
M  V30 48 1 53 56
M  V30 49 1 53 57
M  V30 50 1 54 58
M  V30 51 1 55 59
M  V30 52 1 55 60
M  V30 53 1 61 62
M  V30 54 1 62 63
M  V30 55 1 61 64
M  V30 56 1 61 65
M  V30 57 1 62 66
M  V30 58 1 63 67
M  V30 59 1 63 68
M  V30 60 1 69 70
M  V30 61 1 70 71
M  V30 62 1 69 72
M  V30 63 1 69 73
M  V30 64 1 70 74
M  V30 65 1 71 75
M  V30 66 1 71 76
M  V30 67 1 1 37
M  V30 68 1 1 45
M  V30 69 1 3 61
M  V30 70 1 8 53
M  V30 71 1 8 39
M  V30 72 1 10 69
M  V30 73 1 15 29
M  V30 74 1 15 31
M  V30 75 1 17 55
M  V30 76 1 22 71
M  V30 77 1 22 47
M  V30 78 1 24 63
M  V30 END BOND
M  V30 END CTAB
M  END

$$$$
