
     RDKit          3D

  0  0  0  0  0  0  0  0  0  0999 V3000
M  V30 BEGIN CTAB
M  V30 COUNTS 76 78 0 0 0
M  V30 BEGIN ATOM
M  V30 1 C -1.3541 -1.2501 2.6329 0
M  V30 2 B -0.0887 -0.7828 3.2378 0
M  V30 3 C 1.0301 0.0777 3.5465 0
M  V30 4 H -1.2979 -1.7411 3.1219 0
M  V30 5 H 0.1673 -1.3545 3.5926 0
M  V30 6 H 1.4277 -0.2914 3.9747 0
M  V30 7 H 1.1766 0.0486 4.2293 0
M  V30 8 C 0.1381 -2.0248 0.1512 0
M  V30 9 B -1.0587 -2.1572 0.8169 0
M  V30 10 C -2.4542 -2.2111 1.1945 0
M  V30 11 H 0.5323 -2.5663 0.0532 0
M  V30 12 H -0.6022 -2.2988 1.2467 0
M  V30 13 H -2.4848 -2.2198 1.9837 0
M  V30 14 H -2.8516 -2.2781 1.8791 0
M  V30 15 C 3.4039 2.0833 -1.7266 0
M  V30 16 B 3.6471 2.9603 -0.7065 0
M  V30 17 C 3.5442 3.3946 0.5112 0
M  V30 18 H 3.9583 2.4128 -2.0258 0
M  V30 19 H 4.1140 3.4856 -0.8825 0
M  V30 20 H 3.9042 4.0540 0.6175 0
M  V30 21 H 4.0109 3.5900 0.3681 0
M  V30 22 C -2.6395 0.0926 -1.7332 0
M  V30 23 B -1.4381 0.1630 -2.8342 0
M  V30 24 C -0.2700 0.3526 -3.8180 0
M  V30 25 H -3.0304 0.3614 -2.2469 0
M  V30 26 H -1.2881 -0.1594 -3.2424 0
M  V30 27 H -0.2891 0.0695 -4.4348 0
M  V30 28 H -0.0454 -0.1592 -4.2210 0
M  V30 29 C -1.7537 -2.4403 2.1651 0
M  V30 30 N -1.6547 -2.6604 0.9796 0
M  V30 31 C -0.8816 -2.5620 0.1396 0
M  V30 32 H -1.9324 -3.1647 2.4950 0
M  V30 33 H -2.3047 -2.9690 2.4997 0
M  V30 34 H -2.3328 -2.8217 0.5972 0
M  V30 35 H -1.2243 -2.9805 -0.3065 0
M  V30 36 H -0.8501 -2.9093 -0.4591 0
M  V30 37 C -2.9339 0.5909 -0.4657 0
M  V30 38 N -2.8021 0.3151 0.8887 0
M  V30 39 C -2.3016 -0.3471 2.0278 0
M  V30 40 H -3.1415 1.2559 -0.6404 0
M  V30 41 H -3.4463 1.1064 -0.4180 0
M  V30 42 H -3.3164 0.7758 1.1324 0
M  V30 43 H -2.6490 -0.0160 2.6246 0
M  V30 44 H -2.8536 -0.3608 2.2066 0
M  V30 45 C -3.6291 -0.7271 -1.3626 0
M  V30 46 N -3.9055 -1.5608 -0.4551 0
M  V30 47 C -3.6213 -2.1989 0.5528 0
M  V30 48 H -4.1499 -0.9123 -1.8800 0
M  V30 49 H -4.3250 -0.5991 -1.6488 0
M  V30 50 H -4.6093 -1.8001 -0.6335 0
M  V30 51 H -4.3535 -2.4315 0.7054 0
M  V30 52 H -4.0982 -2.7683 0.7500 0
M  V30 53 C 3.0367 3.1931 1.7033 0
M  V30 54 N 2.3701 2.3193 2.5417 0
M  V30 55 C 1.8378 1.2546 3.3129 0
M  V30 56 H 3.4406 3.6446 2.0898 0
M  V30 57 H 3.0308 3.8616 1.8626 0
M  V30 58 H 2.1224 2.7980 2.7037 0
M  V30 59 H 1.9476 1.5822 3.9376 0
M  V30 60 H 2.3091 1.3333 3.8470 0
M  V30 61 C 2.8484 2.1098 -3.0381 0
M  V30 62 N 1.9549 1.6547 -3.9197 0
M  V30 63 C 0.8706 1.0101 -4.3099 0
M  V30 64 H 2.9437 2.6562 -3.4300 0
M  V30 65 H 3.3307 2.3451 -3.5341 0
M  V30 66 H 2.1958 1.9061 -4.5523 0
M  V30 67 H 1.1372 0.9948 -4.9930 0
M  V30 68 H 0.7615 1.1423 -5.0000 0
M  V30 69 C 1.5995 -1.3959 -0.3311 0
M  V30 70 N 2.6610 -0.3530 -0.7542 0
M  V30 71 C 3.3708 0.8611 -1.1564 0
M  V30 72 H 2.1293 -1.8357 -0.2180 0
M  V30 73 H 2.0426 -1.7579 -0.6597 0
M  V30 74 H 3.2719 -0.6217 -0.8597 0
M  V30 75 H 4.0356 1.0382 -1.1592 0
M  V30 76 H 3.9596 0.7932 -0.8638 0
M  V30 END ATOM
M  V30 BEGIN BOND
M  V30 1 1 1 2
M  V30 2 1 2 3
M  V30 3 1 1 4
M  V30 4 1 2 5
M  V30 5 1 3 6
M  V30 6 1 3 7
M  V30 7 1 8 9
M  V30 8 1 9 10
M  V30 9 1 8 11
M  V30 10 1 9 12
M  V30 11 1 10 13
M  V30 12 1 10 14
M  V30 13 1 15 16
M  V30 14 1 16 17
M  V30 15 1 15 18
M  V30 16 1 16 19
M  V30 17 1 17 20
M  V30 18 1 17 21
M  V30 19 1 22 23
M  V30 20 1 23 24
M  V30 21 1 22 25
M  V30 22 1 23 26
M  V30 23 1 24 27
M  V30 24 1 24 28
M  V30 25 1 29 30
M  V30 26 1 30 31
M  V30 27 1 29 32
M  V30 28 1 29 33
M  V30 29 1 30 34
M  V30 30 1 31 35
M  V30 31 1 31 36
M  V30 32 1 37 38
M  V30 33 1 38 39
M  V30 34 1 37 40
M  V30 35 1 37 41
M  V30 36 1 38 42
M  V30 37 1 39 43
M  V30 38 1 39 44
M  V30 39 1 45 46
M  V30 40 1 46 47
M  V30 41 1 45 48
M  V30 42 1 45 49
M  V30 43 1 46 50
M  V30 44 1 47 51
M  V30 45 1 47 52
M  V30 46 1 53 54
M  V30 47 1 54 55
M  V30 48 1 53 56
M  V30 49 1 53 57
M  V30 50 1 54 58
M  V30 51 1 55 59
M  V30 52 1 55 60
M  V30 53 1 61 62
M  V30 54 1 62 63
M  V30 55 1 61 64
M  V30 56 1 61 65
M  V30 57 1 62 66
M  V30 58 1 63 67
M  V30 59 1 63 68
M  V30 60 1 69 70
M  V30 61 1 70 71
M  V30 62 1 69 72
M  V30 63 1 69 73
M  V30 64 1 70 74
M  V30 65 1 71 75
M  V30 66 1 71 76
M  V30 67 1 1 29
M  V30 68 1 3 55
M  V30 69 1 1 39
M  V30 70 1 8 69
M  V30 71 1 10 47
M  V30 72 1 8 31
M  V30 73 1 15 61
M  V30 74 1 15 71
M  V30 75 1 17 53
M  V30 76 1 22 45
M  V30 77 1 24 63
M  V30 78 1 22 37
M  V30 END BOND
M  V30 END CTAB
M  END

$$$$
