
     RDKit          3D

  0  0  0  0  0  0  0  0  0  0999 V3000
M  V30 BEGIN CTAB
M  V30 COUNTS 76 78 0 0 0
M  V30 BEGIN ATOM
M  V30 1 C 3.2118 -0.7658 -0.2668 0
M  V30 2 B 3.5244 -0.8847 0.1682 0
M  V30 3 C 4.0347 -0.7961 0.2590 0
M  V30 4 H 3.3302 -0.2881 -0.2788 0
M  V30 5 H 3.5083 -1.2627 0.5148 0
M  V30 6 H 4.2407 -0.4541 0.5707 0
M  V30 7 H 4.2130 -1.0357 0.6606 0
M  V30 8 C -1.2171 0.5459 -0.0398 0
M  V30 9 B -1.1062 1.0985 -0.0107 0
M  V30 10 C -0.7196 1.4500 0.1190 0
M  V30 11 H -1.4910 0.6645 -0.4326 0
M  V30 12 H -1.4056 1.4439 -0.2838 0
M  V30 13 H -0.9050 1.9147 -0.0232 0
M  V30 14 H -0.7930 1.7122 0.5564 0
M  V30 15 C -3.8890 -0.3356 0.6167 0
M  V30 16 B -3.4125 -0.1667 0.7353 0
M  V30 17 C -2.8911 -0.2115 0.7544 0
M  V30 18 H -4.0468 -0.4536 1.1012 0
M  V30 19 H -3.5488 0.0739 1.1835 0
M  V30 20 H -2.8375 -0.4516 1.2221 0
M  V30 21 H -2.8313 -0.6952 0.6879 0
M  V30 22 C 0.5518 0.4453 -0.4893 0
M  V30 23 B 1.0197 0.1884 -0.3760 0
M  V30 24 C 1.4548 0.0078 -0.1217 0
M  V30 25 H 0.6356 0.5124 -0.9817 0
M  V30 26 H 1.1844 0.1795 -0.8530 0
M  V30 27 H 1.7399 0.4133 -0.0588 0
M  V30 28 H 1.4869 0.1094 0.3742 0
M  V30 29 C -0.1963 1.5404 0.0477 0
M  V30 30 N 0.2623 1.3390 -0.1222 0
M  V30 31 C 0.5416 1.0160 -0.4545 0
M  V30 32 H -0.0684 1.8199 0.4728 0
M  V30 33 H -0.1886 2.0246 -0.1625 0
M  V30 34 H 0.5412 1.7277 0.0572 0
M  V30 35 H 0.8631 1.3739 -0.5515 0
M  V30 36 H 0.6115 1.2931 -0.9252 0
M  V30 37 C -0.8934 0.2037 -0.3526 0
M  V30 38 N -0.3872 0.0312 -0.3816 0
M  V30 39 C 0.0888 0.1406 -0.6060 0
M  V30 40 H -1.0717 0.1944 -0.8652 0
M  V30 41 H -1.0652 -0.2104 -0.5542 0
M  V30 42 H -0.4105 -0.4703 -0.3023 0
M  V30 43 H 0.0182 0.1174 -1.1481 0
M  V30 44 H 0.0865 -0.2731 -0.8795 0
M  V30 45 C -4.3154 -0.0654 0.4520 0
M  V30 46 N -4.5690 -0.4835 0.2959 0
M  V30 47 C -4.1497 -0.7518 0.4264 0
M  V30 48 H -4.6360 0.2070 0.7379 0
M  V30 49 H -4.5370 0.2515 0.1483 0
M  V30 50 H -5.0000 -0.5798 0.1224 0
M  V30 51 H -4.2147 -1.1113 0.1010 0
M  V30 52 H -4.3079 -1.1599 0.6890 0
M  V30 53 C 3.5539 -0.8908 -0.6805 0
M  V30 54 N 4.0609 -0.7917 -0.5772 0
M  V30 55 C 4.3672 -0.8778 -0.1564 0
M  V30 56 H 3.5929 -1.3384 -0.9438 0
M  V30 57 H 3.6190 -0.7958 -1.1689 0
M  V30 58 H 4.3483 -0.6002 -0.9393 0
M  V30 59 H 4.6936 -1.2621 -0.1744 0
M  V30 60 H 4.8075 -0.6503 -0.1568 0
M  V30 61 C -1.5877 0.3569 0.3293 0
M  V30 62 N -2.1074 0.2543 0.3691 0
M  V30 63 C -2.4987 0.1474 0.7093 0
M  V30 64 H -1.4590 0.0074 0.6468 0
M  V30 65 H -1.5335 0.5456 0.7896 0
M  V30 66 H -2.3704 0.3823 -0.0293 0
M  V30 67 H -2.4184 0.1941 1.2216 0
M  V30 68 H -2.6797 0.6021 0.8625 0
M  V30 69 C 2.6805 -0.8528 -0.2657 0
M  V30 70 N 2.2394 -0.5764 -0.3325 0
M  V30 71 C 1.7943 -0.4071 -0.1024 0
M  V30 72 H 2.6034 -1.2683 0.0218 0
M  V30 73 H 2.5969 -1.2934 -0.5339 0
M  V30 74 H 2.2082 -0.6664 -0.8317 0
M  V30 75 H 1.6054 -0.8631 -0.0139 0
M  V30 76 H 1.8392 -0.4885 0.4040 0
M  V30 END ATOM
M  V30 BEGIN BOND
M  V30 1 1 1 2
M  V30 2 1 2 3
M  V30 3 1 1 4
M  V30 4 1 2 5
M  V30 5 1 3 6
M  V30 6 1 3 7
M  V30 7 1 8 9
M  V30 8 1 9 10
M  V30 9 1 8 11
M  V30 10 1 9 12
M  V30 11 1 10 13
M  V30 12 1 10 14
M  V30 13 1 15 16
M  V30 14 1 16 17
M  V30 15 1 15 18
M  V30 16 1 16 19
M  V30 17 1 17 20
M  V30 18 1 17 21
M  V30 19 1 22 23
M  V30 20 1 23 24
M  V30 21 1 22 25
M  V30 22 1 23 26
M  V30 23 1 24 27
M  V30 24 1 24 28
M  V30 25 1 29 30
M  V30 26 1 30 31
M  V30 27 1 29 32
M  V30 28 1 29 33
M  V30 29 1 30 34
M  V30 30 1 31 35
M  V30 31 1 31 36
M  V30 32 1 37 38
M  V30 33 1 38 39
M  V30 34 1 37 40
M  V30 35 1 37 41
M  V30 36 1 38 42
M  V30 37 1 39 43
M  V30 38 1 39 44
M  V30 39 1 45 46
M  V30 40 1 46 47
M  V30 41 1 45 48
M  V30 42 1 45 49
M  V30 43 1 46 50
M  V30 44 1 47 51
M  V30 45 1 47 52
M  V30 46 1 53 54
M  V30 47 1 54 55
M  V30 48 1 53 56
M  V30 49 1 53 57
M  V30 50 1 54 58
M  V30 51 1 55 59
M  V30 52 1 55 60
M  V30 53 1 61 62
M  V30 54 1 62 63
M  V30 55 1 61 64
M  V30 56 1 61 65
M  V30 57 1 62 66
M  V30 58 1 63 67
M  V30 59 1 63 68
M  V30 60 1 69 70
M  V30 61 1 70 71
M  V30 62 1 69 72
M  V30 63 1 69 73
M  V30 64 1 70 74
M  V30 65 1 71 75
M  V30 66 1 71 76
M  V30 67 1 1 69
M  V30 68 1 1 53
M  V30 69 1 3 55
M  V30 70 1 8 37
M  V30 71 1 8 61
M  V30 72 1 10 29
M  V30 73 1 15 45
M  V30 74 1 15 47
M  V30 75 1 17 63
M  V30 76 1 22 31
M  V30 77 1 22 39
M  V30 78 1 24 71
M  V30 END BOND
M  V30 END CTAB
M  END

$$$$
