
     RDKit          3D

  0  0  0  0  0  0  0  0  0  0999 V3000
M  V30 BEGIN CTAB
M  V30 COUNTS 76 78 0 0 0
M  V30 BEGIN ATOM
M  V30 1 C -0.1520 -0.1925 0.0934 0
M  V30 2 B -0.2060 0.0062 0.3150 0
M  V30 3 C -0.2216 0.2033 0.5228 0
M  V30 4 H -0.1748 -0.2596 0.1387 0
M  V30 5 H -0.2813 0.0157 0.4002 0
M  V30 6 H -0.3019 0.2139 0.6295 0
M  V30 7 H -0.3228 0.2827 0.5585 0
M  V30 8 C -0.1506 0.2624 -0.4483 0
M  V30 9 B 0.0485 0.5210 -0.3715 0
M  V30 10 C 0.2739 0.7183 -0.3101 0
M  V30 11 H -0.1836 0.3711 -0.5184 0
M  V30 12 H 0.0187 0.6446 -0.4008 0
M  V30 13 H 0.2928 0.8462 -0.2596 0
M  V30 14 H 0.2513 0.8560 -0.3235 0
M  V30 15 C 0.7127 0.2238 -0.0142 0
M  V30 16 B 0.6489 0.2579 0.2714 0
M  V30 17 C 0.5359 0.3179 0.5342 0
M  V30 18 H 0.8450 0.1984 -0.0077 0
M  V30 19 H 0.7673 0.2573 0.3309 0
M  V30 20 H 0.6280 0.3802 0.6158 0
M  V30 21 H 0.6213 0.2911 0.6362 0
M  V30 22 C -0.3977 -0.6101 -0.2083 0
M  V30 23 B -0.4439 -0.7757 0.0331 0
M  V30 24 C -0.5368 -0.8650 0.2489 0
M  V30 25 H -0.3776 -0.7445 -0.1994 0
M  V30 26 H -0.4229 -0.9095 0.0682 0
M  V30 27 H -0.5779 -1.0000 0.2959 0
M  V30 28 H -0.5305 -0.9569 0.3665 0
M  V30 29 C -0.2516 -0.5203 -0.3828 0
M  V30 30 N -0.1840 -0.2760 -0.4820 0
M  V30 31 C -0.1562 0.0030 -0.5249 0
M  V30 32 H -0.2553 -0.6348 -0.4746 0
M  V30 33 H -0.1873 -0.6468 -0.4163 0
M  V30 34 H -0.1564 -0.3415 -0.5964 0
M  V30 35 H -0.1957 0.0148 -0.6625 0
M  V30 36 H -0.1138 0.0306 -0.6545 0
M  V30 37 C -0.3822 0.1117 -0.4693 0
M  V30 38 N -0.4903 -0.1426 -0.4312 0
M  V30 39 C -0.5071 -0.4094 -0.3512 0
M  V30 40 H -0.4834 0.2087 -0.4827 0
M  V30 41 H -0.4742 0.1703 -0.5665 0
M  V30 42 H -0.6123 -0.1340 -0.5099 0
M  V30 43 H -0.6013 -0.4619 -0.4555 0
M  V30 44 H -0.6323 -0.4756 -0.3816 0
M  V30 45 C 0.5319 0.7729 -0.2902 0
M  V30 46 N 0.7238 0.6481 -0.2278 0
M  V30 47 C 0.8097 0.4434 -0.1345 0
M  V30 48 H 0.5834 0.8871 -0.3650 0
M  V30 49 H 0.6003 0.9010 -0.2827 0
M  V30 50 H 0.8328 0.7367 -0.2643 0
M  V30 51 H 0.9445 0.4929 -0.1203 0
M  V30 52 H 0.9388 0.4589 -0.1977 0
M  V30 53 C 0.3450 0.3830 0.7182 0
M  V30 54 N 0.1054 0.4049 0.7610 0
M  V30 55 C -0.1194 0.3617 0.6939 0
M  V30 56 H 0.3598 0.3862 0.8548 0
M  V30 57 H 0.4011 0.4613 0.8248 0
M  V30 58 H 0.0892 0.4754 0.8827 0
M  V30 59 H -0.1871 0.4104 0.8110 0
M  V30 60 H -0.1872 0.4744 0.7527 0
M  V30 61 C 0.1065 -0.1944 -0.1519 0
M  V30 62 N 0.3774 -0.1200 -0.2398 0
M  V30 63 C 0.6118 0.0178 -0.1853 0
M  V30 64 H 0.1511 -0.2863 -0.2733 0
M  V30 65 H 0.1386 -0.2134 -0.2958 0
M  V30 66 H 0.4448 -0.1764 -0.3666 0
M  V30 67 H 0.7091 -0.0001 -0.2920 0
M  V30 68 H 0.7196 -0.0643 -0.2417 0
M  V30 69 C -0.3870 -0.3731 0.1856 0
M  V30 70 N -0.5524 -0.5638 0.2903 0
M  V30 71 C -0.6402 -0.7607 0.3552 0
M  V30 72 H -0.4652 -0.4396 0.2177 0
M  V30 73 H -0.5102 -0.3517 0.2070 0
M  V30 74 H -0.6781 -0.5803 0.3384 0
M  V30 75 H -0.7365 -0.8577 0.4202 0
M  V30 76 H -0.7403 -0.7847 0.4602 0
M  V30 END ATOM
M  V30 BEGIN BOND
M  V30 1 1 1 2
M  V30 2 1 2 3
M  V30 3 1 1 4
M  V30 4 1 2 5
M  V30 5 1 3 6
M  V30 6 1 3 7
M  V30 7 1 8 9
M  V30 8 1 9 10
M  V30 9 1 8 11
M  V30 10 1 9 12
M  V30 11 1 10 13
M  V30 12 1 10 14
M  V30 13 1 15 16
M  V30 14 1 16 17
M  V30 15 1 15 18
M  V30 16 1 16 19
M  V30 17 1 17 20
M  V30 18 1 17 21
M  V30 19 1 22 23
M  V30 20 1 23 24
M  V30 21 1 22 25
M  V30 22 1 23 26
M  V30 23 1 24 27
M  V30 24 1 24 28
M  V30 25 1 29 30
M  V30 26 1 30 31
M  V30 27 1 29 32
M  V30 28 1 29 33
M  V30 29 1 30 34
M  V30 30 1 31 35
M  V30 31 1 31 36
M  V30 32 1 37 38
M  V30 33 1 38 39
M  V30 34 1 37 40
M  V30 35 1 37 41
M  V30 36 1 38 42
M  V30 37 1 39 43
M  V30 38 1 39 44
M  V30 39 1 45 46
M  V30 40 1 46 47
M  V30 41 1 45 48
M  V30 42 1 45 49
M  V30 43 1 46 50
M  V30 44 1 47 51
M  V30 45 1 47 52
M  V30 46 1 53 54
M  V30 47 1 54 55
M  V30 48 1 53 56
M  V30 49 1 53 57
M  V30 50 1 54 58
M  V30 51 1 55 59
M  V30 52 1 55 60
M  V30 53 1 61 62
M  V30 54 1 62 63
M  V30 55 1 61 64
M  V30 56 1 61 65
M  V30 57 1 62 66
M  V30 58 1 63 67
M  V30 59 1 63 68
M  V30 60 1 69 70
M  V30 61 1 70 71
M  V30 62 1 69 72
M  V30 63 1 69 73
M  V30 64 1 70 74
M  V30 65 1 71 75
M  V30 66 1 71 76
M  V30 67 1 1 61
M  V30 68 1 1 69
M  V30 69 1 3 55
M  V30 70 1 8 31
M  V30 71 1 8 37
M  V30 72 1 10 45
M  V30 73 1 15 47
M  V30 74 1 17 53
M  V30 75 1 15 63
M  V30 76 1 22 29
M  V30 77 1 22 39
M  V30 78 1 24 71
M  V30 END BOND
M  V30 END CTAB
M  END

$$$$
