
     RDKit          3D

  0  0  0  0  0  0  0  0  0  0999 V3000
M  V30 BEGIN CTAB
M  V30 COUNTS 76 78 0 0 0
M  V30 BEGIN ATOM
M  V30 1 C -0.3851 0.3569 0.2460 0
M  V30 2 B -0.2514 0.5660 0.2647 0
M  V30 3 C -0.0741 0.7265 0.2653 0
M  V30 4 H -0.5458 0.4564 0.3358 0
M  V30 5 H -0.3897 0.7204 0.3481 0
M  V30 6 H -0.1681 0.9196 0.2027 0
M  V30 7 H -0.1130 0.8549 0.4456 0
M  V30 8 C -0.0132 -0.3816 0.4190 0
M  V30 9 B -0.1481 -0.5673 0.3215 0
M  V30 10 C -0.2891 -0.6911 0.1708 0
M  V30 11 H 0.0101 -0.4939 0.5946 0
M  V30 12 H -0.1515 -0.7344 0.4703 0
M  V30 13 H -0.4202 -0.8181 0.3000 0
M  V30 14 H -0.2289 -0.9056 0.1852 0
M  V30 15 C 0.6107 -0.0330 -0.0856 0
M  V30 16 B 0.6804 0.2000 -0.0268 0
M  V30 17 C 0.6810 0.4315 0.0363 0
M  V30 18 H 0.8112 -0.0857 -0.1026 0
M  V30 19 H 0.9028 0.2017 -0.0337 0
M  V30 20 H 0.8717 0.4605 0.1520 0
M  V30 21 H 0.8351 0.5289 -0.0908 0
M  V30 22 C -0.4218 -0.1643 -0.4460 0
M  V30 23 B -0.2255 -0.1515 -0.6026 0
M  V30 24 C -0.0003 -0.1494 -0.6914 0
M  V30 25 H -0.5490 -0.1656 -0.6105 0
M  V30 26 H -0.3117 -0.1416 -0.8078 0
M  V30 27 H -0.0050 -0.2859 -0.8677 0
M  V30 28 H -0.0200 -0.0447 -0.8900 0
M  V30 29 C -0.3729 0.1943 0.4394 0
M  V30 30 N -0.2709 -0.0020 0.5347 0
M  V30 31 C -0.1429 -0.2057 0.5469 0
M  V30 32 H -0.5685 0.1914 0.5530 0
M  V30 33 H -0.4263 0.2855 0.6323 0
M  V30 34 H -0.3538 0.0048 0.7476 0
M  V30 35 H -0.2462 -0.2929 0.7242 0
M  V30 36 H -0.0865 -0.2001 0.7644 0
M  V30 37 C -0.5377 0.0424 -0.3537 0
M  V30 38 N -0.5577 0.2024 -0.1743 0
M  V30 39 C -0.5224 0.3153 0.0366 0
M  V30 40 H -0.7515 0.0459 -0.4178 0
M  V30 41 H -0.6245 0.1657 -0.5188 0
M  V30 42 H -0.7387 0.3153 -0.2515 0
M  V30 43 H -0.6392 0.4899 -0.0219 0
M  V30 44 H -0.7402 0.3492 0.0879 0
M  V30 45 C -0.5006 -0.3939 -0.3763 0
M  V30 46 N -0.4883 -0.5778 -0.2227 0
M  V30 47 C -0.4167 -0.7001 -0.0333 0
M  V30 48 H -0.7110 -0.4349 -0.4374 0
M  V30 49 H -0.5602 -0.5198 -0.5454 0
M  V30 50 H -0.6325 -0.7298 -0.3009 0
M  V30 51 H -0.4032 -0.9121 -0.1075 0
M  V30 52 H -0.5970 -0.8248 0.0142 0
M  V30 53 C 0.5712 0.6319 0.1083 0
M  V30 54 N 0.3747 0.7492 0.1623 0
M  V30 55 C 0.1539 0.7913 0.2322 0
M  V30 56 H 0.7137 0.7257 0.2563 0
M  V30 57 H 0.6775 0.7954 -0.0014 0
M  V30 58 H 0.4512 0.9570 0.1495 0
M  V30 59 H 0.1366 1.0000 0.1526 0
M  V30 60 H 0.2005 0.9242 0.4083 0
M  V30 61 C 0.5731 -0.0872 -0.3302 0
M  V30 62 N 0.4305 -0.1137 -0.5226 0
M  V30 63 C 0.2390 -0.1391 -0.6613 0
M  V30 64 H 0.7320 -0.2311 -0.4009 0
M  V30 65 H 0.7416 -0.0284 -0.4528 0
M  V30 66 H 0.5777 -0.1454 -0.6886 0
M  V30 67 H 0.3166 -0.2887 -0.8114 0
M  V30 68 H 0.3033 -0.0379 -0.8512 0
M  V30 69 C 0.2379 -0.3808 0.3815 0
M  V30 70 N 0.4345 -0.3145 0.2570 0
M  V30 71 C 0.5798 -0.2040 0.0994 0
M  V30 72 H 0.3240 -0.5713 0.4527 0
M  V30 73 H 0.3389 -0.4125 0.5797 0
M  V30 74 H 0.5899 -0.4432 0.3624 0
M  V30 75 H 0.7658 -0.2283 0.2173 0
M  V30 76 H 0.7337 -0.3666 0.0788 0
M  V30 END ATOM
M  V30 BEGIN BOND
M  V30 1 1 1 2
M  V30 2 1 2 3
M  V30 3 1 1 4
M  V30 4 1 2 5
M  V30 5 1 3 6
M  V30 6 1 3 7
M  V30 7 1 8 9
M  V30 8 1 9 10
M  V30 9 1 8 11
M  V30 10 1 9 12
M  V30 11 1 10 13
M  V30 12 1 10 14
M  V30 13 1 15 16
M  V30 14 1 16 17
M  V30 15 1 15 18
M  V30 16 1 16 19
M  V30 17 1 17 20
M  V30 18 1 17 21
M  V30 19 1 22 23
M  V30 20 1 23 24
M  V30 21 1 22 25
M  V30 22 1 23 26
M  V30 23 1 24 27
M  V30 24 1 24 28
M  V30 25 1 29 30
M  V30 26 1 30 31
M  V30 27 1 29 32
M  V30 28 1 29 33
M  V30 29 1 30 34
M  V30 30 1 31 35
M  V30 31 1 31 36
M  V30 32 1 37 38
M  V30 33 1 38 39
M  V30 34 1 37 40
M  V30 35 1 37 41
M  V30 36 1 38 42
M  V30 37 1 39 43
M  V30 38 1 39 44
M  V30 39 1 45 46
M  V30 40 1 46 47
M  V30 41 1 45 48
M  V30 42 1 45 49
M  V30 43 1 46 50
M  V30 44 1 47 51
M  V30 45 1 47 52
M  V30 46 1 53 54
M  V30 47 1 54 55
M  V30 48 1 53 56
M  V30 49 1 53 57
M  V30 50 1 54 58
M  V30 51 1 55 59
M  V30 52 1 55 60
M  V30 53 1 61 62
M  V30 54 1 62 63
M  V30 55 1 61 64
M  V30 56 1 61 65
M  V30 57 1 62 66
M  V30 58 1 63 67
M  V30 59 1 63 68
M  V30 60 1 69 70
M  V30 61 1 70 71
M  V30 62 1 69 72
M  V30 63 1 69 73
M  V30 64 1 70 74
M  V30 65 1 71 75
M  V30 66 1 71 76
M  V30 67 1 1 29
M  V30 68 1 3 55
M  V30 69 1 1 39
M  V30 70 1 8 69
M  V30 71 1 10 47
M  V30 72 1 8 31
M  V30 73 1 15 61
M  V30 74 1 15 71
M  V30 75 1 17 53
M  V30 76 1 22 45
M  V30 77 1 24 63
M  V30 78 1 22 37
M  V30 END BOND
M  V30 END CTAB
M  END

$$$$
