
     RDKit          3D

  0  0  0  0  0  0  0  0  0  0999 V3000
M  V30 BEGIN CTAB
M  V30 COUNTS 76 78 0 0 0
M  V30 BEGIN ATOM
M  V30 1 C -0.1528 0.3760 -0.8169 0
M  V30 2 B -0.8075 0.2558 -0.9527 0
M  V30 3 C -1.2960 0.4795 -0.6963 0
M  V30 4 H 0.0513 0.2546 -1.1847 0
M  V30 5 H -1.0110 -0.0101 -1.3136 0
M  V30 6 H -1.6012 0.1040 -0.5444 0
M  V30 7 H -1.5958 0.3482 -0.3450 0
M  V30 8 C 1.1313 1.0503 1.8803 0
M  V30 9 B 2.2251 0.7000 1.7710 0
M  V30 10 C 3.1766 0.2214 1.5086 0
M  V30 11 H 1.3413 1.2838 2.2550 0
M  V30 12 H 2.5283 0.9021 2.0867 0
M  V30 13 H 3.5307 0.2727 1.8512 0
M  V30 14 H 3.5597 0.4991 1.5721 0
M  V30 15 C 1.7510 -2.8908 -1.8100 0
M  V30 16 B 2.4563 -2.8326 -1.1199 0
M  V30 17 C 3.1878 -2.6384 -0.4768 0
M  V30 18 H 1.7715 -3.1566 -1.6442 0
M  V30 19 H 2.6273 -3.2349 -1.1655 0
M  V30 20 H 3.4597 -2.9976 -0.5283 0
M  V30 21 H 3.2521 -2.9980 -0.2205 0
M  V30 22 C -3.0867 2.0196 0.7814 0
M  V30 23 B -3.8200 1.6126 0.7229 0
M  V30 24 C -4.4226 1.1355 0.4836 0
M  V30 25 H -3.2453 2.4318 0.8759 0
M  V30 26 H -4.1782 1.7776 1.0406 0
M  V30 27 H -4.7702 0.9478 0.3449 0
M  V30 28 H -4.9015 1.1351 0.7327 0
M  V30 29 C 3.7977 -0.4697 1.0631 0
M  V30 30 N 3.9573 -1.3033 0.5801 0
M  V30 31 C 3.8031 -2.1010 0.0647 0
M  V30 32 H 4.2447 -0.4984 1.2035 0
M  V30 33 H 4.2311 -0.2643 0.9910 0
M  V30 34 H 4.4300 -1.3936 0.6565 0
M  V30 35 H 4.1723 -2.3955 0.2340 0
M  V30 36 H 4.2705 -2.2497 -0.0444 0
M  V30 37 C 0.1293 1.6941 1.9760 0
M  V30 38 N -0.9628 2.0519 1.7341 0
M  V30 39 C -2.0549 2.2077 1.3332 0
M  V30 40 H 0.1223 1.8872 2.4374 0
M  V30 41 H 0.2694 2.0977 2.2281 0
M  V30 42 H -1.0036 2.4002 2.0618 0
M  V30 43 H -2.0793 2.6736 1.4435 0
M  V30 44 H -2.2524 2.4857 1.6724 0
M  V30 45 C -3.7963 1.9393 0.1926 0
M  V30 46 N -4.3359 1.4059 -0.0749 0
M  V30 47 C -4.6154 0.7901 0.0437 0
M  V30 48 H -4.1411 2.3247 0.1610 0
M  V30 49 H -4.0062 2.2363 -0.1476 0
M  V30 50 H -4.7654 1.5099 -0.3568 0
M  V30 51 H -5.0000 0.4937 -0.1651 0
M  V30 52 H -4.9088 0.3637 0.1162 0
M  V30 53 C -0.1938 0.9793 -1.3957 0
M  V30 54 N -0.6808 1.3318 -1.3318 0
M  V30 55 C -1.1572 1.1136 -0.9461 0
M  V30 56 H 0.0847 1.2919 -1.7079 0
M  V30 57 H -0.1003 1.1092 -1.8913 0
M  V30 58 H -0.6550 1.7777 -1.5683 0
M  V30 59 H -1.4266 1.3972 -1.1572 0
M  V30 60 H -1.3411 1.4719 -0.7809 0
M  V30 61 C 0.2042 0.0096 -0.0166 0
M  V30 62 N 0.5156 0.0435 0.8472 0
M  V30 63 C 0.8426 0.3786 1.5943 0
M  V30 64 H 0.4462 -0.2889 -0.1641 0
M  V30 65 H 0.1093 -0.4133 0.0426 0
M  V30 66 H 0.4959 -0.3411 1.0762 0
M  V30 67 H 0.8716 0.0409 1.9350 0
M  V30 68 H 0.9066 0.3189 2.0585 0
M  V30 69 C 1.5493 -2.7877 -2.5052 0
M  V30 70 N 1.2622 -3.1679 -2.7125 0
M  V30 71 C 1.2362 -3.2482 -2.2165 0
M  V30 72 H 1.5106 -2.5718 -2.9191 0
M  V30 73 H 1.7568 -2.8126 -2.9305 0
M  V30 74 H 1.0794 -3.3232 -3.1345 0
M  V30 75 H 0.8499 -3.5183 -2.3219 0
M  V30 76 H 1.1669 -3.7259 -2.3461 0
M  V30 END ATOM
M  V30 BEGIN BOND
M  V30 1 1 1 2
M  V30 2 1 2 3
M  V30 3 1 1 4
M  V30 4 1 2 5
M  V30 5 1 3 6
M  V30 6 1 3 7
M  V30 7 1 8 9
M  V30 8 1 9 10
M  V30 9 1 8 11
M  V30 10 1 9 12
M  V30 11 1 10 13
M  V30 12 1 10 14
M  V30 13 1 15 16
M  V30 14 1 16 17
M  V30 15 1 15 18
M  V30 16 1 16 19
M  V30 17 1 17 20
M  V30 18 1 17 21
M  V30 19 1 22 23
M  V30 20 1 23 24
M  V30 21 1 22 25
M  V30 22 1 23 26
M  V30 23 1 24 27
M  V30 24 1 24 28
M  V30 25 1 29 30
M  V30 26 1 30 31
M  V30 27 1 29 32
M  V30 28 1 29 33
M  V30 29 1 30 34
M  V30 30 1 31 35
M  V30 31 1 31 36
M  V30 32 1 37 38
M  V30 33 1 38 39
M  V30 34 1 37 40
M  V30 35 1 37 41
M  V30 36 1 38 42
M  V30 37 1 39 43
M  V30 38 1 39 44
M  V30 39 1 45 46
M  V30 40 1 46 47
M  V30 41 1 45 48
M  V30 42 1 45 49
M  V30 43 1 46 50
M  V30 44 1 47 51
M  V30 45 1 47 52
M  V30 46 1 53 54
M  V30 47 1 54 55
M  V30 48 1 53 56
M  V30 49 1 53 57
M  V30 50 1 54 58
M  V30 51 1 55 59
M  V30 52 1 55 60
M  V30 53 1 61 62
M  V30 54 1 62 63
M  V30 55 1 61 64
M  V30 56 1 61 65
M  V30 57 1 62 66
M  V30 58 1 63 67
M  V30 59 1 63 68
M  V30 60 1 69 70
M  V30 61 1 70 71
M  V30 62 1 69 72
M  V30 63 1 69 73
M  V30 64 1 70 74
M  V30 65 1 71 75
M  V30 66 1 71 76
M  V30 67 1 1 53
M  V30 68 1 1 61
M  V30 69 1 3 55
M  V30 70 1 8 37
M  V30 71 1 8 63
M  V30 72 1 10 29
M  V30 73 1 15 69
M  V30 74 1 15 71
M  V30 75 1 17 31
M  V30 76 1 22 45
M  V30 77 1 22 39
M  V30 78 1 24 47
M  V30 END BOND
M  V30 END CTAB
M  END

$$$$
