
     RDKit          3D

  0  0  0  0  0  0  0  0  0  0999 V3000
M  V30 BEGIN CTAB
M  V30 COUNTS 76 78 0 0 0
M  V30 BEGIN ATOM
M  V30 1 C 0.0740 -0.0655 -0.1080 0
M  V30 2 B 0.1352 -0.1406 -0.0175 0
M  V30 3 C 0.1568 -0.2150 0.0830 0
M  V30 4 H 0.1783 -0.0364 -0.1462 0
M  V30 5 H 0.2569 -0.1416 -0.0424 0
M  V30 6 H 0.1510 -0.3261 0.0594 0
M  V30 7 H 0.2765 -0.2462 0.0753 0
M  V30 8 C -0.1124 0.3076 0.1266 0
M  V30 9 B -0.0430 0.4128 0.1644 0
M  V30 10 C 0.0286 0.4657 0.2536 0
M  V30 11 H -0.1885 0.3793 0.0772 0
M  V30 12 H -0.0698 0.5171 0.1073 0
M  V30 13 H 0.1148 0.5355 0.2105 0
M  V30 14 H 0.0001 0.5817 0.2458 0
M  V30 15 C -0.0527 0.1704 0.5127 0
M  V30 16 B 0.0010 0.0510 0.5204 0
M  V30 17 C 0.0576 -0.0600 0.4957 0
M  V30 18 H -0.0991 0.1646 0.6172 0
M  V30 19 H -0.0194 0.0214 0.6330 0
M  V30 20 H 0.1488 -0.0613 0.5745 0
M  V30 21 H 0.0078 -0.1284 0.5813 0
M  V30 22 C -0.0231 -0.3499 -0.7316 0
M  V30 23 B -0.0453 -0.2947 -0.6262 0
M  V30 24 C -0.0138 -0.2965 -0.5087 0
M  V30 25 H 0.0625 -0.4328 -0.7363 0
M  V30 26 H -0.1483 -0.2445 -0.6531 0
M  V30 27 H 0.0435 -0.3992 -0.4936 0
M  V30 28 H -0.0983 -0.3732 -0.4789 0
M  V30 29 C 0.0379 -0.1308 -0.2129 0
M  V30 30 N 0.0044 -0.1658 -0.3259 0
M  V30 31 C 0.0362 -0.2090 -0.4362 0
M  V30 32 H -0.0440 -0.2036 -0.1852 0
M  V30 33 H 0.1420 -0.1456 -0.2516 0
M  V30 34 H -0.1110 -0.1666 -0.3356 0
M  V30 35 H 0.1517 -0.2271 -0.4610 0
M  V30 36 H 0.0694 -0.1201 -0.5046 0
M  V30 37 C 0.0641 0.4501 0.3759 0
M  V30 38 N 0.0602 0.3764 0.4790 0
M  V30 39 C 0.0107 0.2823 0.5478 0
M  V30 40 H 0.1701 0.5044 0.3874 0
M  V30 41 H 0.0445 0.5566 0.4237 0
M  V30 42 H 0.1338 0.4324 0.5522 0
M  V30 43 H -0.0296 0.3353 0.6493 0
M  V30 44 H 0.0751 0.2932 0.6450 0
M  V30 45 C -0.1061 -0.4191 -0.7909 0
M  V30 46 N -0.0703 -0.3769 -0.8966 0
M  V30 47 C 0.0086 -0.3061 -0.8414 0
M  V30 48 H -0.1135 -0.5357 -0.7991 0
M  V30 49 H -0.2175 -0.4404 -0.8130 0
M  V30 50 H -0.0995 -0.3939 -1.0000 0
M  V30 51 H 0.1100 -0.3176 -0.8999 0
M  V30 52 H 0.0100 -0.2190 -0.9156 0
M  V30 53 C 0.0420 0.0626 -0.0966 0
M  V30 54 N -0.0398 0.1484 -0.0499 0
M  V30 55 C -0.0795 0.2487 0.0151 0
M  V30 56 H 0.0644 0.1285 -0.1854 0
M  V30 57 H 0.1453 0.1254 -0.1258 0
M  V30 58 H -0.1286 0.1597 -0.1239 0
M  V30 59 H -0.0440 0.3361 -0.0576 0
M  V30 60 H -0.1680 0.2899 -0.0554 0
M  V30 61 C 0.1410 -0.2464 0.2041 0
M  V30 62 N 0.1455 -0.2012 0.3190 0
M  V30 63 C 0.0929 -0.1586 0.4236 0
M  V30 64 H 0.0837 -0.3533 0.2196 0
M  V30 65 H 0.2210 -0.3335 0.2228 0
M  V30 66 H 0.2541 -0.2430 0.3594 0
M  V30 67 H 0.1663 -0.2150 0.4974 0
M  V30 68 H 0.0326 -0.2546 0.4700 0
M  V30 69 C -0.2031 0.2698 0.2162 0
M  V30 70 N -0.2122 0.2202 0.3337 0
M  V30 71 C -0.1678 0.1857 0.4484 0
M  V30 72 H -0.3180 0.2548 0.1887 0
M  V30 73 H -0.2965 0.3470 0.2152 0
M  V30 74 H -0.3332 0.2191 0.3557 0
M  V30 75 H -0.2632 0.1319 0.4983 0
M  V30 76 H -0.2522 0.2290 0.5211 0
M  V30 END ATOM
M  V30 BEGIN BOND
M  V30 1 1 1 2
M  V30 2 1 2 3
M  V30 3 1 1 4
M  V30 4 1 2 5
M  V30 5 1 3 6
M  V30 6 1 3 7
M  V30 7 1 8 9
M  V30 8 1 9 10
M  V30 9 1 8 11
M  V30 10 1 9 12
M  V30 11 1 10 13
M  V30 12 1 10 14
M  V30 13 1 15 16
M  V30 14 1 16 17
M  V30 15 1 15 18
M  V30 16 1 16 19
M  V30 17 1 17 20
M  V30 18 1 17 21
M  V30 19 1 22 23
M  V30 20 1 23 24
M  V30 21 1 22 25
M  V30 22 1 23 26
M  V30 23 1 24 27
M  V30 24 1 24 28
M  V30 25 1 29 30
M  V30 26 1 30 31
M  V30 27 1 29 32
M  V30 28 1 29 33
M  V30 29 1 30 34
M  V30 30 1 31 35
M  V30 31 1 31 36
M  V30 32 1 37 38
M  V30 33 1 38 39
M  V30 34 1 37 40
M  V30 35 1 37 41
M  V30 36 1 38 42
M  V30 37 1 39 43
M  V30 38 1 39 44
M  V30 39 1 45 46
M  V30 40 1 46 47
M  V30 41 1 45 48
M  V30 42 1 45 49
M  V30 43 1 46 50
M  V30 44 1 47 51
M  V30 45 1 47 52
M  V30 46 1 53 54
M  V30 47 1 54 55
M  V30 48 1 53 56
M  V30 49 1 53 57
M  V30 50 1 54 58
M  V30 51 1 55 59
M  V30 52 1 55 60
M  V30 53 1 61 62
M  V30 54 1 62 63
M  V30 55 1 61 64
M  V30 56 1 61 65
M  V30 57 1 62 66
M  V30 58 1 63 67
M  V30 59 1 63 68
M  V30 60 1 69 70
M  V30 61 1 70 71
M  V30 62 1 69 72
M  V30 63 1 69 73
M  V30 64 1 70 74
M  V30 65 1 71 75
M  V30 66 1 71 76
M  V30 67 1 1 29
M  V30 68 1 1 53
M  V30 69 1 3 61
M  V30 70 1 8 69
M  V30 71 1 8 55
M  V30 72 1 10 37
M  V30 73 1 15 39
M  V30 74 1 15 71
M  V30 75 1 17 63
M  V30 76 1 22 45
M  V30 77 1 22 47
M  V30 78 1 24 31
M  V30 END BOND
M  V30 END CTAB
M  END

$$$$
