
     RDKit          3D

  0  0  0  0  0  0  0  0  0  0999 V3000
M  V30 BEGIN CTAB
M  V30 COUNTS 76 78 0 0 0
M  V30 BEGIN ATOM
M  V30 1 C -0.2519 -0.6191 0.0401 0
M  V30 2 B -0.2123 -0.6936 0.1105 0
M  V30 3 C -0.1938 -0.7978 0.1048 0
M  V30 4 H -0.3363 -0.6007 0.0999 0
M  V30 5 H -0.2285 -0.6938 0.2136 0
M  V30 6 H -0.1074 -0.8484 0.1174 0
M  V30 7 H -0.1941 -0.8418 0.1957 0
M  V30 8 C 0.1543 0.2130 0.0232 0
M  V30 9 B 0.2480 0.1808 -0.0312 0
M  V30 10 C 0.2893 0.1147 -0.1057 0
M  V30 11 H 0.2082 0.2063 0.1082 0
M  V30 12 H 0.3420 0.1950 0.0157 0
M  V30 13 H 0.3416 0.1646 -0.1781 0
M  V30 14 H 0.3910 0.1017 -0.0776 0
M  V30 15 C 0.0545 0.7881 0.0768 0
M  V30 16 B 0.0734 0.6898 0.1071 0
M  V30 17 C 0.1323 0.6022 0.1069 0
M  V30 18 H 0.1151 0.8396 0.1457 0
M  V30 19 H 0.0457 0.7046 0.2071 0
M  V30 20 H 0.2151 0.6316 0.0594 0
M  V30 21 H 0.2072 0.6259 0.1793 0
M  V30 22 C 0.0297 -0.1105 -0.0933 0
M  V30 23 B -0.0223 -0.2032 -0.0697 0
M  V30 24 C -0.0940 -0.2792 -0.0905 0
M  V30 25 H 0.0905 -0.1484 -0.0294 0
M  V30 26 H 0.0202 -0.2385 0.0148 0
M  V30 27 H -0.1892 -0.2459 -0.0941 0
M  V30 28 H -0.1325 -0.2760 -0.1882 0
M  V30 29 C 0.2695 0.0254 -0.1637 0
M  V30 30 N 0.2070 -0.0596 -0.1753 0
M  V30 31 C 0.1085 -0.1055 -0.1765 0
M  V30 32 H 0.3658 -0.0156 -0.1667 0
M  V30 33 H 0.2952 0.0459 -0.2648 0
M  V30 34 H 0.2781 -0.1187 -0.2211 0
M  V30 35 H 0.1425 -0.1674 -0.2441 0
M  V30 36 H 0.0776 -0.0980 -0.2793 0
M  V30 37 C 0.0767 0.1376 0.0565 0
M  V30 38 N 0.0067 0.0667 0.0126 0
M  V30 39 C -0.0178 -0.0132 -0.0583 0
M  V30 40 H 0.1054 0.1055 0.1556 0
M  V30 41 H 0.0232 0.1521 0.1381 0
M  V30 42 H -0.0814 0.0851 0.0618 0
M  V30 43 H -0.0798 0.0239 -0.1376 0
M  V30 44 H -0.1147 0.0041 -0.0550 0
M  V30 45 C 0.0744 0.8595 0.0013 0
M  V30 46 N -0.0095 0.9167 0.0201 0
M  V30 47 C -0.0347 0.8452 0.0898 0
M  V30 48 H 0.0835 0.8864 -0.0929 0
M  V30 49 H 0.1533 0.9247 -0.0032 0
M  V30 50 H -0.0451 1.0000 -0.0098 0
M  V30 51 H -0.0643 0.8957 0.1739 0
M  V30 52 H -0.1323 0.8560 0.0826 0
M  V30 53 C -0.3084 -0.6822 -0.0300 0
M  V30 54 N -0.2824 -0.7851 -0.0353 0
M  V30 55 C -0.2549 -0.8561 0.0380 0
M  V30 56 H -0.4145 -0.6812 -0.0274 0
M  V30 57 H -0.3539 -0.6855 -0.1185 0
M  V30 58 H -0.2965 -0.8367 -0.1200 0
M  V30 59 H -0.2226 -0.9447 0.0056 0
M  V30 60 H -0.3244 -0.9220 0.0713 0
M  V30 61 C 0.1317 0.3220 0.0167 0
M  V30 62 N 0.1435 0.4081 0.0797 0
M  V30 63 C 0.1114 0.4985 0.1228 0
M  V30 64 H 0.1602 0.3632 -0.0697 0
M  V30 65 H 0.0583 0.3525 -0.0428 0
M  V30 66 H 0.2356 0.4122 0.1274 0
M  V30 67 H 0.1332 0.4926 0.2274 0
M  V30 68 H 0.0254 0.4964 0.1719 0
M  V30 69 C -0.2197 -0.5170 0.0312 0
M  V30 70 N -0.1406 -0.4555 -0.0041 0
M  V30 71 C -0.1007 -0.3851 -0.0736 0
M  V30 72 H -0.2431 -0.4871 0.1269 0
M  V30 73 H -0.3131 -0.4764 0.0206 0
M  V30 74 H -0.0628 -0.4897 0.0515 0
M  V30 75 H -0.1225 -0.4148 -0.1702 0
M  V30 76 H -0.0228 -0.4399 -0.1117 0
M  V30 END ATOM
M  V30 BEGIN BOND
M  V30 1 1 1 2
M  V30 2 1 2 3
M  V30 3 1 1 4
M  V30 4 1 2 5
M  V30 5 1 3 6
M  V30 6 1 3 7
M  V30 7 1 8 9
M  V30 8 1 9 10
M  V30 9 1 8 11
M  V30 10 1 9 12
M  V30 11 1 10 13
M  V30 12 1 10 14
M  V30 13 1 15 16
M  V30 14 1 16 17
M  V30 15 1 15 18
M  V30 16 1 16 19
M  V30 17 1 17 20
M  V30 18 1 17 21
M  V30 19 1 22 23
M  V30 20 1 23 24
M  V30 21 1 22 25
M  V30 22 1 23 26
M  V30 23 1 24 27
M  V30 24 1 24 28
M  V30 25 1 29 30
M  V30 26 1 30 31
M  V30 27 1 29 32
M  V30 28 1 29 33
M  V30 29 1 30 34
M  V30 30 1 31 35
M  V30 31 1 31 36
M  V30 32 1 37 38
M  V30 33 1 38 39
M  V30 34 1 37 40
M  V30 35 1 37 41
M  V30 36 1 38 42
M  V30 37 1 39 43
M  V30 38 1 39 44
M  V30 39 1 45 46
M  V30 40 1 46 47
M  V30 41 1 45 48
M  V30 42 1 45 49
M  V30 43 1 46 50
M  V30 44 1 47 51
M  V30 45 1 47 52
M  V30 46 1 53 54
M  V30 47 1 54 55
M  V30 48 1 53 56
M  V30 49 1 53 57
M  V30 50 1 54 58
M  V30 51 1 55 59
M  V30 52 1 55 60
M  V30 53 1 61 62
M  V30 54 1 62 63
M  V30 55 1 61 64
M  V30 56 1 61 65
M  V30 57 1 62 66
M  V30 58 1 63 67
M  V30 59 1 63 68
M  V30 60 1 69 70
M  V30 61 1 70 71
M  V30 62 1 69 72
M  V30 63 1 69 73
M  V30 64 1 70 74
M  V30 65 1 71 75
M  V30 66 1 71 76
M  V30 67 1 1 69
M  V30 68 1 1 53
M  V30 69 1 3 55
M  V30 70 1 8 37
M  V30 71 1 8 61
M  V30 72 1 10 29
M  V30 73 1 15 45
M  V30 74 1 15 47
M  V30 75 1 17 63
M  V30 76 1 22 31
M  V30 77 1 22 39
M  V30 78 1 24 71
M  V30 END BOND
M  V30 END CTAB
M  END

$$$$
