
     RDKit          3D

  0  0  0  0  0  0  0  0  0  0999 V3000
M  V30 BEGIN CTAB
M  V30 COUNTS 76 78 0 0 0
M  V30 BEGIN ATOM
M  V30 1 C -1.9112 1.6608 0.3012 0
M  V30 2 B -2.2408 1.7749 0.7946 0
M  V30 3 C -2.7513 2.0247 0.8984 0
M  V30 4 H -1.5538 2.0244 0.4561 0
M  V30 5 H -2.1019 1.8768 1.3221 0
M  V30 6 H -3.1842 1.7839 1.1457 0
M  V30 7 H -2.8121 2.2429 1.4027 0
M  V30 8 C -0.4221 -0.0919 -0.0469 0
M  V30 9 B 0.1812 0.0470 -0.0218 0
M  V30 10 C 0.7222 0.1151 0.2181 0
M  V30 11 H -0.4298 0.0332 -0.5424 0
M  V30 12 H 0.2986 0.2151 -0.5303 0
M  V30 13 H 0.8120 -0.2672 0.5867 0
M  V30 14 H 0.6865 0.2962 0.7214 0
M  V30 15 C 3.8376 0.5728 0.6541 0
M  V30 16 B 3.3031 0.5708 0.4552 0
M  V30 17 C 2.7457 0.7056 0.5158 0
M  V30 18 H 4.0649 0.0789 0.4936 0
M  V30 19 H 3.4574 0.4769 -0.0751 0
M  V30 20 H 2.7701 1.1553 0.1935 0
M  V30 21 H 2.7293 1.1499 0.8526 0
M  V30 22 C -0.9800 -2.1787 -0.8888 0
M  V30 23 B -1.0520 -2.3570 -1.4604 0
M  V30 24 C -1.3883 -2.7362 -1.7346 0
M  V30 25 H -0.4924 -2.4126 -0.8707 0
M  V30 26 H -0.6914 -2.3808 -1.8870 0
M  V30 27 H -1.7525 -2.6183 -2.1339 0
M  V30 28 H -1.1909 -2.9197 -2.2167 0
M  V30 29 C 1.2714 0.2945 0.0692 0
M  V30 30 N 1.8000 0.2395 0.3008 0
M  V30 31 C 2.2527 0.4019 0.6211 0
M  V30 32 H 1.4296 0.2626 -0.4654 0
M  V30 33 H 1.3010 0.7859 -0.1607 0
M  V30 34 H 2.0233 -0.1987 0.0567 0
M  V30 35 H 2.1720 0.5411 1.1541 0
M  V30 36 H 2.3656 -0.0241 0.9646 0
M  V30 37 C -0.5952 -0.6899 -0.1000 0
M  V30 38 N -0.7799 -1.1787 -0.3834 0
M  V30 39 C -0.9278 -1.5924 -0.7694 0
M  V30 40 H -0.3649 -0.9784 0.2718 0
M  V30 41 H -0.8150 -0.8461 0.3863 0
M  V30 42 H -0.9649 -1.4547 0.0569 0
M  V30 43 H -1.3998 -1.4338 -0.9598 0
M  V30 44 H -0.7684 -1.4324 -1.2585 0
M  V30 45 C -1.2213 -2.6583 -0.6125 0
M  V30 46 N -1.5527 -3.0262 -0.9075 0
M  V30 47 C -1.5793 -3.2120 -1.4498 0
M  V30 48 H -1.4835 -2.8195 -0.1625 0
M  V30 49 H -0.9255 -3.0593 -0.3312 0
M  V30 50 H -1.9001 -3.3486 -0.6348 0
M  V30 51 H -1.4304 -3.7323 -1.5729 0
M  V30 52 H -2.0314 -3.4658 -1.6107 0
M  V30 53 C -2.1577 2.0611 -0.0818 0
M  V30 54 N -2.6716 2.2908 0.0460 0
M  V30 55 C -2.9571 2.4285 0.5256 0
M  V30 56 H -2.2566 2.1542 -0.6140 0
M  V30 57 H -1.9137 2.5397 -0.2644 0
M  V30 58 H -2.9743 2.4943 -0.3611 0
M  V30 59 H -3.4920 2.5169 0.4869 0
M  V30 60 H -3.0359 2.9612 0.6564 0
M  V30 61 C -1.6679 1.1289 0.1786 0
M  V30 62 N -1.2035 0.7921 0.0437 0
M  V30 63 C -0.8375 0.3297 0.1590 0
M  V30 64 H -1.9870 0.8477 0.5020 0
M  V30 65 H -2.0003 0.9958 -0.2257 0
M  V30 66 H -1.1172 1.0193 -0.4420 0
M  V30 67 H -0.7348 0.4499 0.6577 0
M  V30 68 H -1.0651 0.1330 0.6119 0
M  V30 69 C 4.2555 0.9305 0.4545 0
M  V30 70 N 4.5495 0.8984 0.9314 0
M  V30 71 C 4.1416 0.5737 1.1455 0
M  V30 72 H 4.3950 1.4315 0.2897 0
M  V30 73 H 4.6103 0.8467 0.0339 0
M  V30 74 H 5.0000 1.0850 1.1001 0
M  V30 75 H 4.1910 0.7232 1.6644 0
M  V30 76 H 4.4000 0.1512 1.3962 0
M  V30 END ATOM
M  V30 BEGIN BOND
M  V30 1 1 1 2
M  V30 2 1 2 3
M  V30 3 1 1 4
M  V30 4 1 2 5
M  V30 5 1 3 6
M  V30 6 1 3 7
M  V30 7 1 8 9
M  V30 8 1 9 10
M  V30 9 1 8 11
M  V30 10 1 9 12
M  V30 11 1 10 13
M  V30 12 1 10 14
M  V30 13 1 15 16
M  V30 14 1 16 17
M  V30 15 1 15 18
M  V30 16 1 16 19
M  V30 17 1 17 20
M  V30 18 1 17 21
M  V30 19 1 22 23
M  V30 20 1 23 24
M  V30 21 1 22 25
M  V30 22 1 23 26
M  V30 23 1 24 27
M  V30 24 1 24 28
M  V30 25 1 29 30
M  V30 26 1 30 31
M  V30 27 1 29 32
M  V30 28 1 29 33
M  V30 29 1 30 34
M  V30 30 1 31 35
M  V30 31 1 31 36
M  V30 32 1 37 38
M  V30 33 1 38 39
M  V30 34 1 37 40
M  V30 35 1 37 41
M  V30 36 1 38 42
M  V30 37 1 39 43
M  V30 38 1 39 44
M  V30 39 1 45 46
M  V30 40 1 46 47
M  V30 41 1 45 48
M  V30 42 1 45 49
M  V30 43 1 46 50
M  V30 44 1 47 51
M  V30 45 1 47 52
M  V30 46 1 53 54
M  V30 47 1 54 55
M  V30 48 1 53 56
M  V30 49 1 53 57
M  V30 50 1 54 58
M  V30 51 1 55 59
M  V30 52 1 55 60
M  V30 53 1 61 62
M  V30 54 1 62 63
M  V30 55 1 61 64
M  V30 56 1 61 65
M  V30 57 1 62 66
M  V30 58 1 63 67
M  V30 59 1 63 68
M  V30 60 1 69 70
M  V30 61 1 70 71
M  V30 62 1 69 72
M  V30 63 1 69 73
M  V30 64 1 70 74
M  V30 65 1 71 75
M  V30 66 1 71 76
M  V30 67 1 1 53
M  V30 68 1 1 61
M  V30 69 1 3 55
M  V30 70 1 8 37
M  V30 71 1 8 63
M  V30 72 1 10 29
M  V30 73 1 15 69
M  V30 74 1 15 71
M  V30 75 1 17 31
M  V30 76 1 22 45
M  V30 77 1 22 39
M  V30 78 1 24 47
M  V30 END BOND
M  V30 END CTAB
M  END

$$$$
