
     RDKit          3D

  0  0  0  0  0  0  0  0  0  0999 V3000
M  V30 BEGIN CTAB
M  V30 COUNTS 76 78 0 0 0
M  V30 BEGIN ATOM
M  V30 1 C -1.0136 -0.0716 -3.1571 0
M  V30 2 B -1.1932 0.3621 -3.4229 0
M  V30 3 C -1.6449 0.4870 -3.6490 0
M  V30 4 H -0.6698 -0.1885 -3.5236 0
M  V30 5 H -0.9081 0.6619 -3.7284 0
M  V30 6 H -1.5851 0.8289 -4.0041 0
M  V30 7 H -1.9447 0.8713 -3.5609 0
M  V30 8 C 0.7676 0.1321 1.0989 0
M  V30 9 B 1.2224 -0.1447 0.9539 0
M  V30 10 C 1.4246 -0.4760 0.5929 0
M  V30 11 H 1.0646 0.5400 1.1940 0
M  V30 12 H 1.6909 0.0316 1.1331 0
M  V30 13 H 1.4993 -0.9543 0.7417 0
M  V30 14 H 1.9249 -0.5083 0.7039 0
M  V30 15 C 0.1310 0.0245 3.8763 0
M  V30 16 B 0.0251 0.0182 3.3680 0
M  V30 17 C 0.0378 -0.2451 2.9179 0
M  V30 18 H 0.5748 -0.1516 4.0363 0
M  V30 19 H -0.3565 0.3450 3.3658 0
M  V30 20 H -0.1170 -0.7223 3.0241 0
M  V30 21 H -0.4588 -0.2967 2.8755 0
M  V30 22 C 0.5365 0.2027 -0.6889 0
M  V30 23 B 0.1846 0.0998 -1.0850 0
M  V30 24 C -0.1488 -0.1417 -1.4187 0
M  V30 25 H 0.7572 0.5970 -0.8925 0
M  V30 26 H 0.3038 0.4998 -1.3442 0
M  V30 27 H 0.0859 -0.5302 -1.6159 0
M  V30 28 H -0.3584 -0.5690 -1.2699 0
M  V30 29 C 1.4580 -0.5452 0.0698 0
M  V30 30 N 1.2692 -0.4013 -0.3938 0
M  V30 31 C 1.0458 -0.0387 -0.7141 0
M  V30 32 H 1.5418 -1.0540 0.0230 0
M  V30 33 H 1.9725 -0.5436 -0.0198 0
M  V30 34 H 1.5300 -0.7503 -0.6499 0
M  V30 35 H 1.3542 -0.1479 -1.0709 0
M  V30 36 H 1.4526 0.2654 -0.9092 0
M  V30 37 C 0.4345 0.3940 0.7430 0
M  V30 38 N 0.2713 0.4747 0.2563 0
M  V30 39 C 0.3819 0.5197 -0.2548 0
M  V30 40 H -0.0325 0.3602 0.8575 0
M  V30 41 H 0.4620 0.9165 0.8403 0
M  V30 42 H -0.1346 0.7834 0.3285 0
M  V30 43 H 0.1210 0.9317 -0.2988 0
M  V30 44 H 0.5859 1.0204 -0.3058 0
M  V30 45 C 0.1580 0.4314 4.2049 0
M  V30 46 N -0.0960 0.1839 4.5694 0
M  V30 47 C -0.1417 -0.2138 4.2570 0
M  V30 48 H 0.5509 0.6347 4.4351 0
M  V30 49 H 0.0148 0.8885 4.3093 0
M  V30 50 H -0.2371 0.2854 5.0000 0
M  V30 51 H -0.5807 -0.3866 4.3984 0
M  V30 52 H -0.0262 -0.6214 4.5230 0
M  V30 53 C -1.3597 -0.4525 -3.3238 0
M  V30 54 N -1.8150 -0.3001 -3.5309 0
M  V30 55 C -1.9491 0.0971 -3.8366 0
M  V30 56 H -1.5377 -0.8982 -3.2395 0
M  V30 57 H -1.1949 -0.8259 -3.6487 0
M  V30 58 H -2.2065 -0.5974 -3.5245 0
M  V30 59 H -2.0149 0.0165 -4.3240 0
M  V30 60 H -2.4271 0.1704 -3.9161 0
M  V30 61 C 0.6163 0.0822 1.6149 0
M  V30 62 N 0.3845 -0.1871 2.0053 0
M  V30 63 C 0.3652 -0.3150 2.5079 0
M  V30 64 H 1.0153 0.2787 1.8418 0
M  V30 65 H 0.5194 0.5447 1.7738 0
M  V30 66 H 0.0520 -0.5313 1.9154 0
M  V30 67 H 0.8136 -0.4157 2.6926 0
M  V30 68 H 0.4367 -0.8274 2.5485 0
M  V30 69 C -0.6598 -0.0650 -2.7651 0
M  V30 70 N -0.5930 0.0793 -2.2705 0
M  V30 71 C -0.5359 -0.0320 -1.7645 0
M  V30 72 H -0.3984 -0.4710 -2.9053 0
M  V30 73 H -0.2501 0.1195 -3.0181 0
M  V30 74 H -0.6181 0.5793 -2.3113 0
M  V30 75 H -0.9292 0.2214 -1.5959 0
M  V30 76 H -0.9016 -0.3593 -1.6449 0
M  V30 END ATOM
M  V30 BEGIN BOND
M  V30 1 1 1 2
M  V30 2 1 2 3
M  V30 3 1 1 4
M  V30 4 1 2 5
M  V30 5 1 3 6
M  V30 6 1 3 7
M  V30 7 1 8 9
M  V30 8 1 9 10
M  V30 9 1 8 11
M  V30 10 1 9 12
M  V30 11 1 10 13
M  V30 12 1 10 14
M  V30 13 1 15 16
M  V30 14 1 16 17
M  V30 15 1 15 18
M  V30 16 1 16 19
M  V30 17 1 17 20
M  V30 18 1 17 21
M  V30 19 1 22 23
M  V30 20 1 23 24
M  V30 21 1 22 25
M  V30 22 1 23 26
M  V30 23 1 24 27
M  V30 24 1 24 28
M  V30 25 1 29 30
M  V30 26 1 30 31
M  V30 27 1 29 32
M  V30 28 1 29 33
M  V30 29 1 30 34
M  V30 30 1 31 35
M  V30 31 1 31 36
M  V30 32 1 37 38
M  V30 33 1 38 39
M  V30 34 1 37 40
M  V30 35 1 37 41
M  V30 36 1 38 42
M  V30 37 1 39 43
M  V30 38 1 39 44
M  V30 39 1 45 46
M  V30 40 1 46 47
M  V30 41 1 45 48
M  V30 42 1 45 49
M  V30 43 1 46 50
M  V30 44 1 47 51
M  V30 45 1 47 52
M  V30 46 1 53 54
M  V30 47 1 54 55
M  V30 48 1 53 56
M  V30 49 1 53 57
M  V30 50 1 54 58
M  V30 51 1 55 59
M  V30 52 1 55 60
M  V30 53 1 61 62
M  V30 54 1 62 63
M  V30 55 1 61 64
M  V30 56 1 61 65
M  V30 57 1 62 66
M  V30 58 1 63 67
M  V30 59 1 63 68
M  V30 60 1 69 70
M  V30 61 1 70 71
M  V30 62 1 69 72
M  V30 63 1 69 73
M  V30 64 1 70 74
M  V30 65 1 71 75
M  V30 66 1 71 76
M  V30 67 1 1 69
M  V30 68 1 1 53
M  V30 69 1 3 55
M  V30 70 1 8 37
M  V30 71 1 8 61
M  V30 72 1 10 29
M  V30 73 1 15 45
M  V30 74 1 15 47
M  V30 75 1 17 63
M  V30 76 1 22 31
M  V30 77 1 22 39
M  V30 78 1 24 71
M  V30 END BOND
M  V30 END CTAB
M  END

$$$$
