
     RDKit          3D

  0  0  0  0  0  0  0  0  0  0999 V3000
M  V30 BEGIN CTAB
M  V30 COUNTS 76 78 0 0 0
M  V30 BEGIN ATOM
M  V30 1 C -0.0817 -2.3436 -0.5081 0
M  V30 2 B 0.0225 -2.2640 -1.7471 0
M  V30 3 C -0.0877 -1.8261 -2.7779 0
M  V30 4 H -0.2584 -2.8593 -0.7319 0
M  V30 5 H 0.3428 -2.6758 -2.1097 0
M  V30 6 H 0.3656 -1.7966 -3.3743 0
M  V30 7 H 0.5957 -1.8258 -3.0771 0
M  V30 8 C 1.2800 -2.8569 2.2365 0
M  V30 9 B 2.6543 -2.2090 2.1733 0
M  V30 10 C 3.7233 -1.2088 2.0378 0
M  V30 11 H 1.5743 -3.3520 2.6440 0
M  V30 12 H 3.1376 -2.6285 2.4500 0
M  V30 13 H 4.3673 -1.4903 2.0181 0
M  V30 14 H 4.2700 -1.3975 2.4556 0
M  V30 15 C -2.6385 1.4497 0.4083 0
M  V30 16 B -3.5496 1.0032 -0.4194 0
M  V30 17 C -3.9360 0.3424 -1.3993 0
M  V30 18 H -3.1404 1.7860 0.7291 0
M  V30 19 H -4.1999 1.2287 -0.2802 0
M  V30 20 H -4.6419 0.2898 -1.3087 0
M  V30 21 H -4.5898 0.5042 -1.6922 0
M  V30 22 C 1.8917 2.8208 0.3087 0
M  V30 23 B 1.3667 3.6761 -0.7631 0
M  V30 24 C 0.5949 4.1763 -1.7513 0
M  V30 25 H 2.1642 3.4281 0.3865 0
M  V30 26 H 1.6974 4.2648 -0.9134 0
M  V30 27 H 0.6696 4.4657 -2.4195 0
M  V30 28 H 1.0113 4.4787 -2.2617 0
M  V30 29 C -0.2255 -3.6521 -0.0453 0
M  V30 30 N 0.2355 -4.2643 0.8059 0
M  V30 31 C 0.8757 -4.0456 1.7007 0
M  V30 32 H -0.7124 -4.2201 -0.0550 0
M  V30 33 H -0.4855 -4.2495 -0.4031 0
M  V30 34 H 0.0513 -5.0000 0.7661 0
M  V30 35 H 1.1630 -4.7349 1.7829 0
M  V30 36 H 0.7831 -4.7413 1.9650 0
M  V30 37 C 1.0686 1.8477 0.7642 0
M  V30 38 N 0.4476 0.4910 0.6486 0
M  V30 39 C 0.0507 -0.9535 0.1733 0
M  V30 40 H 0.8642 2.3636 1.1573 0
M  V30 41 H 1.2455 2.1997 1.2912 0
M  V30 42 H 0.4125 0.7130 1.1732 0
M  V30 43 H -0.4500 -1.1050 0.1961 0
M  V30 44 H -0.1006 -1.1392 0.6417 0
M  V30 45 C 3.0983 2.4393 0.9540 0
M  V30 46 N 3.8447 1.3985 1.4304 0
M  V30 47 C 4.1518 0.1177 1.7980 0
M  V30 48 H 3.3848 2.9869 1.2939 0
M  V30 49 H 3.6489 2.8865 0.9367 0
M  V30 50 H 4.4608 1.6866 1.6052 0
M  V30 51 H 4.7503 0.1956 2.1922 0
M  V30 52 H 4.8552 0.1455 1.7560 0
M  V30 53 C -3.4031 -0.3976 -2.2819 0
M  V30 54 N -2.3283 -0.9688 -2.8116 0
M  V30 55 C -1.1538 -1.4667 -3.0951 0
M  V30 56 H -3.9935 -0.6860 -2.4965 0
M  V30 57 H -3.8994 -0.3751 -2.8166 0
M  V30 58 H -2.6749 -1.1550 -3.3936 0
M  V30 59 H -0.6840 -1.7174 -3.3318 0
M  V30 60 H -1.1163 -1.5909 -3.7536 0
M  V30 61 C -2.3314 2.8070 -0.4024 0
M  V30 62 N -1.6021 3.7152 -1.2722 0
M  V30 63 C -0.6051 4.2743 -1.9342 0
M  V30 64 H -2.8470 3.2570 -0.5631 0
M  V30 65 H -2.6454 3.4003 -0.2067 0
M  V30 66 H -1.9181 4.2862 -1.5292 0
M  V30 67 H -0.8584 4.6814 -2.4983 0
M  V30 68 H -0.5399 4.8554 -2.3927 0
M  V30 69 C 0.0422 -2.0337 2.5838 0
M  V30 70 N -1.0886 -0.8864 2.2826 0
M  V30 71 C -2.0423 0.3321 1.5923 0
M  V30 72 H -0.0049 -2.5372 3.0801 0
M  V30 73 H -0.0154 -2.1716 3.2884 0
M  V30 74 H -1.3763 -1.0127 2.9076 0
M  V30 75 H -2.6099 0.2839 2.0105 0
M  V30 76 H -2.3277 0.5602 2.1920 0
M  V30 END ATOM
M  V30 BEGIN BOND
M  V30 1 1 1 2
M  V30 2 1 2 3
M  V30 3 1 1 4
M  V30 4 1 2 5
M  V30 5 1 3 6
M  V30 6 1 3 7
M  V30 7 1 8 9
M  V30 8 1 9 10
M  V30 9 1 8 11
M  V30 10 1 9 12
M  V30 11 1 10 13
M  V30 12 1 10 14
M  V30 13 1 15 16
M  V30 14 1 16 17
M  V30 15 1 15 18
M  V30 16 1 16 19
M  V30 17 1 17 20
M  V30 18 1 17 21
M  V30 19 1 22 23
M  V30 20 1 23 24
M  V30 21 1 22 25
M  V30 22 1 23 26
M  V30 23 1 24 27
M  V30 24 1 24 28
M  V30 25 1 29 30
M  V30 26 1 30 31
M  V30 27 1 29 32
M  V30 28 1 29 33
M  V30 29 1 30 34
M  V30 30 1 31 35
M  V30 31 1 31 36
M  V30 32 1 37 38
M  V30 33 1 38 39
M  V30 34 1 37 40
M  V30 35 1 37 41
M  V30 36 1 38 42
M  V30 37 1 39 43
M  V30 38 1 39 44
M  V30 39 1 45 46
M  V30 40 1 46 47
M  V30 41 1 45 48
M  V30 42 1 45 49
M  V30 43 1 46 50
M  V30 44 1 47 51
M  V30 45 1 47 52
M  V30 46 1 53 54
M  V30 47 1 54 55
M  V30 48 1 53 56
M  V30 49 1 53 57
M  V30 50 1 54 58
M  V30 51 1 55 59
M  V30 52 1 55 60
M  V30 53 1 61 62
M  V30 54 1 62 63
M  V30 55 1 61 64
M  V30 56 1 61 65
M  V30 57 1 62 66
M  V30 58 1 63 67
M  V30 59 1 63 68
M  V30 60 1 69 70
M  V30 61 1 70 71
M  V30 62 1 69 72
M  V30 63 1 69 73
M  V30 64 1 70 74
M  V30 65 1 71 75
M  V30 66 1 71 76
M  V30 67 1 1 29
M  V30 68 1 3 55
M  V30 69 1 1 39
M  V30 70 1 8 69
M  V30 71 1 10 47
M  V30 72 1 8 31
M  V30 73 1 15 61
M  V30 74 1 15 71
M  V30 75 1 17 53
M  V30 76 1 22 45
M  V30 77 1 24 63
M  V30 78 1 22 37
M  V30 END BOND
M  V30 END CTAB
M  END

$$$$
