
     RDKit          3D

  0  0  0  0  0  0  0  0  0  0999 V3000
M  V30 BEGIN CTAB
M  V30 COUNTS 76 78 0 0 0
M  V30 BEGIN ATOM
M  V30 1 C -2.8093 -2.6144 -2.0553 0
M  V30 2 B -2.4144 -3.6614 -2.4553 0
M  V30 3 C -1.6888 -4.3322 -2.9049 0
M  V30 4 H -3.3533 -2.8929 -2.1697 0
M  V30 5 H -2.8325 -4.1817 -2.5337 0
M  V30 6 H -1.5891 -5.0000 -2.8994 0
M  V30 7 H -1.8959 -4.9244 -3.2290 0
M  V30 8 C -2.8104 2.2275 0.7996 0
M  V30 9 B -1.8630 3.0857 0.2605 0
M  V30 10 C -0.6794 3.6140 -0.1564 0
M  V30 11 H -3.3274 2.6071 0.7580 0
M  V30 12 H -2.2078 3.6042 0.1069 0
M  V30 13 H -0.8587 4.0598 -0.5838 0
M  V30 14 H -0.7960 4.2537 -0.1793 0
M  V30 15 C 4.0674 0.5013 -2.4865 0
M  V30 16 B 4.0651 0.9964 -1.3809 0
M  V30 17 C 3.8268 1.6789 -0.4312 0
M  V30 18 H 4.6845 0.5712 -2.5893 0
M  V30 19 H 4.6282 0.8654 -1.2785 0
M  V30 20 H 4.4422 1.6065 -0.2638 0
M  V30 21 H 4.2588 1.6883 0.0438 0
M  V30 22 C -0.3588 0.1236 3.8055 0
M  V30 23 B -0.1729 -0.9637 3.9484 0
M  V30 24 C 0.3057 -1.8840 4.1441 0
M  V30 25 H -0.4941 0.2349 4.3597 0
M  V30 26 H -0.5948 -1.2920 4.1113 0
M  V30 27 H 0.2017 -2.3076 4.6714 0
M  V30 28 H 0.1853 -2.5233 4.2069 0
M  V30 29 C 0.6710 3.6328 -0.2646 0
M  V30 30 N 1.9200 3.1826 -0.1398 0
M  V30 31 C 3.0231 2.5054 -0.0120 0
M  V30 32 H 0.7960 4.2677 -0.2290 0
M  V30 33 H 0.7742 4.0930 -0.6706 0
M  V30 34 H 2.2326 3.6755 -0.1668 0
M  V30 35 H 3.3544 2.5061 0.5077 0
M  V30 36 H 3.3729 2.8758 0.3385 0
M  V30 37 C -2.6750 2.4349 2.0743 0
M  V30 38 N -2.0162 2.0029 3.0466 0
M  V30 39 C -1.2194 1.2125 3.6877 0
M  V30 40 H -2.9369 3.0438 2.2672 0
M  V30 41 H -3.1998 2.7388 2.3913 0
M  V30 42 H -2.2475 2.4414 3.4834 0
M  V30 43 H -1.5375 1.3221 4.2579 0
M  V30 44 H -1.1946 1.6223 4.1915 0
M  V30 45 C 0.6297 -0.3261 3.7431 0
M  V30 46 N 1.1604 -1.1676 3.8974 0
M  V30 47 C 1.1313 -2.0004 4.1591 0
M  V30 48 H 0.9317 0.0149 3.5140 0
M  V30 49 H 1.1719 -0.0668 3.7908 0
M  V30 50 H 1.7515 -1.2870 4.0775 0
M  V30 51 H 1.5264 -2.5498 4.2698 0
M  V30 52 H 1.4419 -2.3696 4.6899 0
M  V30 53 C -2.1494 -2.8086 -2.8983 0
M  V30 54 N -1.4819 -3.4077 -3.3642 0
M  V30 55 C -0.9581 -4.0785 -3.3146 0
M  V30 56 H -2.1374 -2.7098 -3.4714 0
M  V30 57 H -2.3805 -2.4414 -3.2497 0
M  V30 58 H -1.4443 -3.5552 -4.0008 0
M  V30 59 H -0.5529 -4.5850 -3.4878 0
M  V30 60 H -0.4435 -4.2419 -3.7046 0
M  V30 61 C -3.4156 -1.5483 -1.1912 0
M  V30 62 N -3.5995 -0.2989 -0.4151 0
M  V30 63 C -3.4919 1.0298 0.2210 0
M  V30 64 H -3.8874 -1.8739 -0.9860 0
M  V30 65 H -4.0023 -1.6114 -1.3841 0
M  V30 66 H -4.1322 -0.4414 -0.1761 0
M  V30 67 H -4.0821 1.0501 0.4578 0
M  V30 68 H -4.0763 1.2314 0.0277 0
M  V30 69 C 3.8388 0.5719 -3.3865 0
M  V30 70 N 3.9752 0.0578 -3.7831 0
M  V30 71 C 4.2808 -0.0843 -3.2104 0
M  V30 72 H 4.1510 0.9062 -3.8629 0
M  V30 73 H 3.6457 0.8297 -3.9181 0
M  V30 74 H 4.0937 -0.1021 -4.4283 0
M  V30 75 H 4.6337 -0.6004 -3.4411 0
M  V30 76 H 4.8356 -0.2343 -3.5558 0
M  V30 END ATOM
M  V30 BEGIN BOND
M  V30 1 1 1 2
M  V30 2 1 2 3
M  V30 3 1 1 4
M  V30 4 1 2 5
M  V30 5 1 3 6
M  V30 6 1 3 7
M  V30 7 1 8 9
M  V30 8 1 9 10
M  V30 9 1 8 11
M  V30 10 1 9 12
M  V30 11 1 10 13
M  V30 12 1 10 14
M  V30 13 1 15 16
M  V30 14 1 16 17
M  V30 15 1 15 18
M  V30 16 1 16 19
M  V30 17 1 17 20
M  V30 18 1 17 21
M  V30 19 1 22 23
M  V30 20 1 23 24
M  V30 21 1 22 25
M  V30 22 1 23 26
M  V30 23 1 24 27
M  V30 24 1 24 28
M  V30 25 1 29 30
M  V30 26 1 30 31
M  V30 27 1 29 32
M  V30 28 1 29 33
M  V30 29 1 30 34
M  V30 30 1 31 35
M  V30 31 1 31 36
M  V30 32 1 37 38
M  V30 33 1 38 39
M  V30 34 1 37 40
M  V30 35 1 37 41
M  V30 36 1 38 42
M  V30 37 1 39 43
M  V30 38 1 39 44
M  V30 39 1 45 46
M  V30 40 1 46 47
M  V30 41 1 45 48
M  V30 42 1 45 49
M  V30 43 1 46 50
M  V30 44 1 47 51
M  V30 45 1 47 52
M  V30 46 1 53 54
M  V30 47 1 54 55
M  V30 48 1 53 56
M  V30 49 1 53 57
M  V30 50 1 54 58
M  V30 51 1 55 59
M  V30 52 1 55 60
M  V30 53 1 61 62
M  V30 54 1 62 63
M  V30 55 1 61 64
M  V30 56 1 61 65
M  V30 57 1 62 66
M  V30 58 1 63 67
M  V30 59 1 63 68
M  V30 60 1 69 70
M  V30 61 1 70 71
M  V30 62 1 69 72
M  V30 63 1 69 73
M  V30 64 1 70 74
M  V30 65 1 71 75
M  V30 66 1 71 76
M  V30 67 1 1 53
M  V30 68 1 1 61
M  V30 69 1 3 55
M  V30 70 1 8 37
M  V30 71 1 8 63
M  V30 72 1 10 29
M  V30 73 1 15 69
M  V30 74 1 15 71
M  V30 75 1 17 31
M  V30 76 1 22 45
M  V30 77 1 22 39
M  V30 78 1 24 47
M  V30 END BOND
M  V30 END CTAB
M  END

$$$$
