
     RDKit          3D

  0  0  0  0  0  0  0  0  0  0999 V3000
M  V30 BEGIN CTAB
M  V30 COUNTS 76 78 0 0 0
M  V30 BEGIN ATOM
M  V30 1 C 0.4254 -0.0067 0.3476 0
M  V30 2 B 0.4610 -0.0986 0.4321 0
M  V30 3 C 0.5291 -0.1016 0.5357 0
M  V30 4 H 0.4920 -0.0547 0.2653 0
M  V30 5 H 0.4791 -0.2168 0.4180 0
M  V30 6 H 0.4906 -0.1339 0.6438 0
M  V30 7 H 0.5745 -0.2079 0.5627 0
M  V30 8 C 0.0061 0.0548 0.0754 0
M  V30 9 B -0.0044 -0.0192 -0.0352 0
M  V30 10 C 0.0057 -0.0397 -0.1619 0
M  V30 11 H 0.0486 0.1441 0.0233 0
M  V30 12 H -0.0456 -0.1227 -0.0006 0
M  V30 13 H -0.0239 0.0553 -0.2212 0
M  V30 14 H 0.0994 0.0133 -0.2043 0
M  V30 15 C -0.0062 -0.3735 -0.7525 0
M  V30 16 B -0.0262 -0.2816 -0.6718 0
M  V30 17 C 0.0268 -0.1978 -0.5962 0
M  V30 18 H 0.0859 -0.4475 -0.7339 0
M  V30 19 H -0.1321 -0.2439 -0.7138 0
M  V30 20 H 0.1439 -0.2055 -0.6156 0
M  V30 21 H 0.0567 -0.1066 -0.6748 0
M  V30 22 C -0.3888 0.2759 0.2846 0
M  V30 23 B -0.4890 0.2256 0.3501 0
M  V30 24 C -0.6069 0.2593 0.3696 0
M  V30 25 H -0.3365 0.3015 0.3835 0
M  V30 26 H -0.4951 0.1564 0.4476 0
M  V30 27 H -0.6552 0.2175 0.4700 0
M  V30 28 H -0.7027 0.1945 0.3413 0
M  V30 29 C -0.0161 -0.1302 -0.2500 0
M  V30 30 N 0.0153 -0.1460 -0.3699 0
M  V30 31 C -0.0023 -0.1354 -0.4927 0
M  V30 32 H -0.1213 -0.1815 -0.2471 0
M  V30 33 H -0.0110 -0.2450 -0.2160 0
M  V30 34 H 0.1074 -0.2172 -0.3636 0
M  V30 35 H -0.1055 -0.0898 -0.5261 0
M  V30 36 H 0.0338 -0.0286 -0.5406 0
M  V30 37 C -0.0970 0.1294 0.1189 0
M  V30 38 N -0.2088 0.1414 0.1804 0
M  V30 39 C -0.3158 0.2044 0.2065 0
M  V30 40 H -0.1045 0.2219 0.0469 0
M  V30 41 H -0.0580 0.2366 0.1386 0
M  V30 42 H -0.2394 0.0448 0.2388 0
M  V30 43 H -0.3558 0.2505 0.1099 0
M  V30 44 H -0.3928 0.1184 0.1841 0
M  V30 45 C -0.4292 0.3997 0.2737 0
M  V30 46 N -0.5488 0.4266 0.2935 0
M  V30 47 C -0.6395 0.3812 0.3642 0
M  V30 48 H -0.3836 0.4956 0.3346 0
M  V30 49 H -0.4220 0.4960 0.2060 0
M  V30 50 H -0.5931 0.5258 0.2479 0
M  V30 51 H -0.6791 0.4441 0.4575 0
M  V30 52 H -0.7495 0.4120 0.3388 0
M  V30 53 C 0.5183 0.0808 0.3721 0
M  V30 54 N 0.5850 0.0727 0.4764 0
M  V30 55 C 0.6232 -0.0186 0.5505 0
M  V30 56 H 0.6136 0.1058 0.2984 0
M  V30 57 H 0.5426 0.1956 0.3711 0
M  V30 58 H 0.6418 0.1681 0.5153 0
M  V30 59 H 0.7389 -0.0479 0.5541 0
M  V30 60 H 0.6606 0.0097 0.6575 0
M  V30 61 C 0.3024 -0.0020 0.3096 0
M  V30 62 N 0.2198 0.0390 0.2243 0
M  V30 63 C 0.1141 0.0348 0.1524 0
M  V30 64 H 0.2545 0.0271 0.4103 0
M  V30 65 H 0.2703 -0.1096 0.3433 0
M  V30 66 H 0.2693 0.1462 0.2070 0
M  V30 67 H 0.0848 -0.0643 0.1987 0
M  V30 68 H 0.1783 0.1127 0.1022 0
M  V30 69 C -0.0772 -0.4695 -0.7883 0
M  V30 70 N -0.0485 -0.4552 -0.9056 0
M  V30 71 C 0.0175 -0.3583 -0.8752 0
M  V30 72 H -0.1855 -0.5111 -0.8014 0
M  V30 73 H -0.0662 -0.5866 -0.7706 0
M  V30 74 H -0.0721 -0.5086 -1.0000 0
M  V30 75 H 0.1193 -0.3668 -0.9364 0
M  V30 76 H -0.0007 -0.2888 -0.9690 0
M  V30 END ATOM
M  V30 BEGIN BOND
M  V30 1 1 1 2
M  V30 2 1 2 3
M  V30 3 1 1 4
M  V30 4 1 2 5
M  V30 5 1 3 6
M  V30 6 1 3 7
M  V30 7 1 8 9
M  V30 8 1 9 10
M  V30 9 1 8 11
M  V30 10 1 9 12
M  V30 11 1 10 13
M  V30 12 1 10 14
M  V30 13 1 15 16
M  V30 14 1 16 17
M  V30 15 1 15 18
M  V30 16 1 16 19
M  V30 17 1 17 20
M  V30 18 1 17 21
M  V30 19 1 22 23
M  V30 20 1 23 24
M  V30 21 1 22 25
M  V30 22 1 23 26
M  V30 23 1 24 27
M  V30 24 1 24 28
M  V30 25 1 29 30
M  V30 26 1 30 31
M  V30 27 1 29 32
M  V30 28 1 29 33
M  V30 29 1 30 34
M  V30 30 1 31 35
M  V30 31 1 31 36
M  V30 32 1 37 38
M  V30 33 1 38 39
M  V30 34 1 37 40
M  V30 35 1 37 41
M  V30 36 1 38 42
M  V30 37 1 39 43
M  V30 38 1 39 44
M  V30 39 1 45 46
M  V30 40 1 46 47
M  V30 41 1 45 48
M  V30 42 1 45 49
M  V30 43 1 46 50
M  V30 44 1 47 51
M  V30 45 1 47 52
M  V30 46 1 53 54
M  V30 47 1 54 55
M  V30 48 1 53 56
M  V30 49 1 53 57
M  V30 50 1 54 58
M  V30 51 1 55 59
M  V30 52 1 55 60
M  V30 53 1 61 62
M  V30 54 1 62 63
M  V30 55 1 61 64
M  V30 56 1 61 65
M  V30 57 1 62 66
M  V30 58 1 63 67
M  V30 59 1 63 68
M  V30 60 1 69 70
M  V30 61 1 70 71
M  V30 62 1 69 72
M  V30 63 1 69 73
M  V30 64 1 70 74
M  V30 65 1 71 75
M  V30 66 1 71 76
M  V30 67 1 1 53
M  V30 68 1 1 61
M  V30 69 1 3 55
M  V30 70 1 8 37
M  V30 71 1 8 63
M  V30 72 1 10 29
M  V30 73 1 15 69
M  V30 74 1 15 71
M  V30 75 1 17 31
M  V30 76 1 22 45
M  V30 77 1 22 39
M  V30 78 1 24 47
M  V30 END BOND
M  V30 END CTAB
M  END

$$$$
