
     RDKit          3D

  0  0  0  0  0  0  0  0  0  0999 V3000
M  V30 BEGIN CTAB
M  V30 COUNTS 76 78 0 0 0
M  V30 BEGIN ATOM
M  V30 1 C -0.2179 0.2393 -0.8823 0
M  V30 2 B -0.3947 0.2062 -0.8797 0
M  V30 3 C -0.5406 0.2068 -0.7963 0
M  V30 4 H -0.2243 0.2546 -1.0000 0
M  V30 5 H -0.4436 0.1929 -0.9870 0
M  V30 6 H -0.6506 0.1856 -0.8026 0
M  V30 7 H -0.6162 0.1368 -0.8384 0
M  V30 8 C 0.0815 0.0903 -0.2913 0
M  V30 9 B -0.0496 0.1702 -0.1464 0
M  V30 10 C -0.1918 0.1874 0.0168 0
M  V30 11 H 0.1653 0.1141 -0.3337 0
M  V30 12 H -0.0238 0.2660 -0.1692 0
M  V30 13 H -0.2567 0.2775 0.0007 0
M  V30 14 H -0.1958 0.2986 0.0326 0
M  V30 15 C 0.4546 -0.6411 0.2559 0
M  V30 16 B 0.2294 -0.5932 0.3375 0
M  V30 17 C 0.0035 -0.5044 0.3909 0
M  V30 18 H 0.4809 -0.7290 0.3077 0
M  V30 19 H 0.2411 -0.6892 0.3853 0
M  V30 20 H -0.0077 -0.5769 0.4766 0
M  V30 21 H -0.0372 -0.6067 0.4165 0
M  V30 22 C 0.0589 0.1072 0.5665 0
M  V30 23 B 0.1198 0.2625 0.6536 0
M  V30 24 C 0.1328 0.4081 0.7492 0
M  V30 25 H 0.0519 0.0473 0.6292 0
M  V30 26 H 0.2081 0.2964 0.6804 0
M  V30 27 H 0.1517 0.5185 0.7616 0
M  V30 28 H 0.2151 0.4772 0.7775 0
M  V30 29 C -0.2916 0.0710 0.1773 0
M  V30 30 N -0.2798 -0.1304 0.2985 0
M  V30 31 C -0.1861 -0.3392 0.3814 0
M  V30 32 H -0.3603 0.1592 0.2127 0
M  V30 33 H -0.4013 0.1033 0.1920 0
M  V30 34 H -0.3860 -0.1249 0.3438 0
M  V30 35 H -0.2832 -0.3950 0.4112 0
M  V30 36 H -0.2497 -0.3789 0.4701 0
M  V30 37 C 0.0922 -0.0300 -0.1234 0
M  V30 38 N 0.0583 -0.0616 0.0942 0
M  V30 39 C 0.0385 -0.0174 0.3306 0
M  V30 40 H 0.1660 -0.0932 -0.1678 0
M  V30 41 H 0.0921 -0.1080 -0.1885 0
M  V30 42 H 0.0436 -0.1568 0.0557 0
M  V30 43 H -0.0375 -0.0813 0.3153 0
M  V30 44 H 0.0260 -0.1232 0.3171 0
M  V30 45 C 0.0358 0.1583 0.7693 0
M  V30 46 N 0.0332 0.2863 0.8720 0
M  V30 47 C 0.0586 0.4231 0.8629 0
M  V30 48 H 0.0630 0.1136 0.8693 0
M  V30 49 H -0.0113 0.1417 0.8741 0
M  V30 50 H 0.0199 0.3065 0.9929 0
M  V30 51 H 0.0074 0.5131 0.8864 0
M  V30 52 H 0.0658 0.4942 0.9606 0
M  V30 53 C -0.2706 0.3405 -0.7781 0
M  V30 54 N -0.4107 0.3704 -0.7142 0
M  V30 55 C -0.5499 0.3198 -0.7092 0
M  V30 56 H -0.2060 0.4211 -0.7608 0
M  V30 57 H -0.1958 0.3467 -0.7301 0
M  V30 58 H -0.4236 0.4651 -0.6767 0
M  V30 59 H -0.6408 0.3465 -0.6554 0
M  V30 60 H -0.6436 0.3781 -0.7326 0
M  V30 61 C -0.0251 0.1947 -0.8842 0
M  V30 62 N 0.0973 0.1488 -0.7348 0
M  V30 63 C 0.1444 0.1116 -0.5288 0
M  V30 64 H 0.0038 0.1666 -0.9967 0
M  V30 65 H 0.0283 0.2335 -0.9830 0
M  V30 66 H 0.1748 0.1465 -0.8189 0
M  V30 67 H 0.2235 0.0710 -0.5944 0
M  V30 68 H 0.2408 0.1445 -0.5751 0
M  V30 69 C 0.6155 -0.6022 0.1811 0
M  V30 70 N 0.6856 -0.6865 0.1423 0
M  V30 71 C 0.5945 -0.7330 0.2016 0
M  V30 72 H 0.7236 -0.5856 0.1978 0
M  V30 73 H 0.6877 -0.5455 0.1211 0
M  V30 74 H 0.7878 -0.7285 0.1011 0
M  V30 75 H 0.6363 -0.8348 0.1685 0
M  V30 76 H 0.6645 -0.8225 0.2401 0
M  V30 END ATOM
M  V30 BEGIN BOND
M  V30 1 1 1 2
M  V30 2 1 2 3
M  V30 3 1 1 4
M  V30 4 1 2 5
M  V30 5 1 3 6
M  V30 6 1 3 7
M  V30 7 1 8 9
M  V30 8 1 9 10
M  V30 9 1 8 11
M  V30 10 1 9 12
M  V30 11 1 10 13
M  V30 12 1 10 14
M  V30 13 1 15 16
M  V30 14 1 16 17
M  V30 15 1 15 18
M  V30 16 1 16 19
M  V30 17 1 17 20
M  V30 18 1 17 21
M  V30 19 1 22 23
M  V30 20 1 23 24
M  V30 21 1 22 25
M  V30 22 1 23 26
M  V30 23 1 24 27
M  V30 24 1 24 28
M  V30 25 1 29 30
M  V30 26 1 30 31
M  V30 27 1 29 32
M  V30 28 1 29 33
M  V30 29 1 30 34
M  V30 30 1 31 35
M  V30 31 1 31 36
M  V30 32 1 37 38
M  V30 33 1 38 39
M  V30 34 1 37 40
M  V30 35 1 37 41
M  V30 36 1 38 42
M  V30 37 1 39 43
M  V30 38 1 39 44
M  V30 39 1 45 46
M  V30 40 1 46 47
M  V30 41 1 45 48
M  V30 42 1 45 49
M  V30 43 1 46 50
M  V30 44 1 47 51
M  V30 45 1 47 52
M  V30 46 1 53 54
M  V30 47 1 54 55
M  V30 48 1 53 56
M  V30 49 1 53 57
M  V30 50 1 54 58
M  V30 51 1 55 59
M  V30 52 1 55 60
M  V30 53 1 61 62
M  V30 54 1 62 63
M  V30 55 1 61 64
M  V30 56 1 61 65
M  V30 57 1 62 66
M  V30 58 1 63 67
M  V30 59 1 63 68
M  V30 60 1 69 70
M  V30 61 1 70 71
M  V30 62 1 69 72
M  V30 63 1 69 73
M  V30 64 1 70 74
M  V30 65 1 71 75
M  V30 66 1 71 76
M  V30 67 1 1 53
M  V30 68 1 1 61
M  V30 69 1 3 55
M  V30 70 1 8 37
M  V30 71 1 8 63
M  V30 72 1 10 29
M  V30 73 1 15 69
M  V30 74 1 15 71
M  V30 75 1 17 31
M  V30 76 1 22 45
M  V30 77 1 22 39
M  V30 78 1 24 47
M  V30 END BOND
M  V30 END CTAB
M  END

$$$$
