
     RDKit          3D

  0  0  0  0  0  0  0  0  0  0999 V3000
M  V30 BEGIN CTAB
M  V30 COUNTS 76 78 0 0 0
M  V30 BEGIN ATOM
M  V30 1 C 0.4667 -0.0922 0.2636 0
M  V30 2 B 0.4874 -0.0491 0.4685 0
M  V30 3 C 0.4453 -0.0276 0.6644 0
M  V30 4 H 0.6353 -0.1571 0.2633 0
M  V30 5 H 0.6720 -0.0592 0.5177 0
M  V30 6 H 0.5197 0.1263 0.7452 0
M  V30 7 H 0.6066 -0.0659 0.7645 0
M  V30 8 C -0.4689 0.1781 -0.5320 0
M  V30 9 B -0.5420 0.0319 -0.4056 0
M  V30 10 C -0.5747 -0.1106 -0.2681 0
M  V30 11 H -0.6259 0.1843 -0.6306 0
M  V30 12 H -0.7176 0.0130 -0.4765 0
M  V30 13 H -0.6569 -0.2449 -0.3826 0
M  V30 14 H -0.7587 -0.0667 -0.2297 0
M  V30 15 C -0.1549 -0.4307 0.2939 0
M  V30 16 B -0.1869 -0.4162 0.5013 0
M  V30 17 C -0.1675 -0.3612 0.6942 0
M  V30 18 H -0.1915 -0.6073 0.3035 0
M  V30 19 H -0.2743 -0.5746 0.5637 0
M  V30 20 H -0.2150 -0.5133 0.8045 0
M  V30 21 H -0.3306 -0.3367 0.7865 0
M  V30 22 C 0.0640 0.4682 -0.5579 0
M  V30 23 B 0.2355 0.4552 -0.4434 0
M  V30 24 C 0.3830 0.4107 -0.3148 0
M  V30 25 H 0.1362 0.5992 -0.6678 0
M  V30 26 H 0.3406 0.5897 -0.5276 0
M  V30 27 H 0.5313 0.4017 -0.4406 0
M  V30 28 H 0.4486 0.5903 -0.2886 0
M  V30 29 C -0.1104 0.5703 -0.5084 0
M  V30 30 N -0.3038 0.5154 -0.4770 0
M  V30 31 C -0.4566 0.3819 -0.4915 0
M  V30 32 H -0.1229 0.7299 -0.6137 0
M  V30 33 H -0.1160 0.7476 -0.4461 0
M  V30 34 H -0.3941 0.6834 -0.4540 0
M  V30 35 H -0.5916 0.4747 -0.5909 0
M  V30 36 H -0.5976 0.4854 -0.4227 0
M  V30 37 C -0.3402 0.1500 -0.6930 0
M  V30 38 N -0.1525 0.2141 -0.7384 0
M  V30 39 C 0.0060 0.3385 -0.7099 0
M  V30 40 H -0.4378 0.1687 -0.8566 0
M  V30 41 H -0.3638 0.0196 -0.8268 0
M  V30 42 H -0.1246 0.1470 -0.9164 0
M  V30 43 H 0.1180 0.2819 -0.8503 0
M  V30 44 H 0.0308 0.4238 -0.8794 0
M  V30 45 C -0.5469 -0.2216 -0.1022 0
M  V30 46 N -0.4311 -0.3379 0.0121 0
M  V30 47 C -0.3206 -0.4023 0.1670 0
M  V30 48 H -0.6880 -0.3457 -0.1347 0
M  V30 49 H -0.7034 -0.1738 0.0009 0
M  V30 50 H -0.5034 -0.5088 -0.0535 0
M  V30 51 H -0.4735 -0.4207 0.2641 0
M  V30 52 H -0.3825 -0.5832 0.1375 0
M  V30 53 C -0.0416 -0.2618 0.8166 0
M  V30 54 N 0.1194 -0.1446 0.8362 0
M  V30 55 C 0.3031 -0.0741 0.7998 0
M  V30 56 H -0.0226 -0.3794 0.9662 0
M  V30 57 H -0.1538 -0.1879 0.9508 0
M  V30 58 H 0.0812 -0.0598 1.0000 0
M  V30 59 H 0.3117 0.0656 0.9282 0
M  V30 60 H 0.4026 -0.1478 0.9456 0
M  V30 61 C 0.3950 -0.2862 0.2169 0
M  V30 62 N 0.2317 -0.4068 0.2102 0
M  V30 63 C 0.0429 -0.4778 0.2340 0
M  V30 64 H 0.5133 -0.3950 0.1113 0
M  V30 65 H 0.5308 -0.4176 0.2585 0
M  V30 66 H 0.3225 -0.5779 0.1625 0
M  V30 67 H 0.0624 -0.6405 0.1333 0
M  V30 68 H 0.0829 -0.6615 0.2802 0
M  V30 69 C 0.5229 0.0570 0.1260 0
M  V30 70 N 0.5170 0.1783 -0.0340 0
M  V30 71 C 0.4734 0.3339 -0.1519 0
M  V30 72 H 0.6280 0.1791 0.2105 0
M  V30 73 H 0.7058 0.0094 0.0846 0
M  V30 74 H 0.6944 0.1433 -0.1118 0
M  V30 75 H 0.5255 0.4952 -0.0589 0
M  V30 76 H 0.6512 0.3833 -0.1999 0
M  V30 END ATOM
M  V30 BEGIN BOND
M  V30 1 1 1 2
M  V30 2 1 2 3
M  V30 3 1 1 4
M  V30 4 1 2 5
M  V30 5 1 3 6
M  V30 6 1 3 7
M  V30 7 1 8 9
M  V30 8 1 9 10
M  V30 9 1 8 11
M  V30 10 1 9 12
M  V30 11 1 10 13
M  V30 12 1 10 14
M  V30 13 1 15 16
M  V30 14 1 16 17
M  V30 15 1 15 18
M  V30 16 1 16 19
M  V30 17 1 17 20
M  V30 18 1 17 21
M  V30 19 1 22 23
M  V30 20 1 23 24
M  V30 21 1 22 25
M  V30 22 1 23 26
M  V30 23 1 24 27
M  V30 24 1 24 28
M  V30 25 1 29 30
M  V30 26 1 30 31
M  V30 27 1 29 32
M  V30 28 1 29 33
M  V30 29 1 30 34
M  V30 30 1 31 35
M  V30 31 1 31 36
M  V30 32 1 37 38
M  V30 33 1 38 39
M  V30 34 1 37 40
M  V30 35 1 37 41
M  V30 36 1 38 42
M  V30 37 1 39 43
M  V30 38 1 39 44
M  V30 39 1 45 46
M  V30 40 1 46 47
M  V30 41 1 45 48
M  V30 42 1 45 49
M  V30 43 1 46 50
M  V30 44 1 47 51
M  V30 45 1 47 52
M  V30 46 1 53 54
M  V30 47 1 54 55
M  V30 48 1 53 56
M  V30 49 1 53 57
M  V30 50 1 54 58
M  V30 51 1 55 59
M  V30 52 1 55 60
M  V30 53 1 61 62
M  V30 54 1 62 63
M  V30 55 1 61 64
M  V30 56 1 61 65
M  V30 57 1 62 66
M  V30 58 1 63 67
M  V30 59 1 63 68
M  V30 60 1 69 70
M  V30 61 1 70 71
M  V30 62 1 69 72
M  V30 63 1 69 73
M  V30 64 1 70 74
M  V30 65 1 71 75
M  V30 66 1 71 76
M  V30 67 1 1 61
M  V30 68 1 1 69
M  V30 69 1 3 55
M  V30 70 1 8 31
M  V30 71 1 8 37
M  V30 72 1 10 45
M  V30 73 1 15 47
M  V30 74 1 17 53
M  V30 75 1 15 63
M  V30 76 1 22 29
M  V30 77 1 22 39
M  V30 78 1 24 71
M  V30 END BOND
M  V30 END CTAB
M  END

$$$$
