
     RDKit          3D

  0  0  0  0  0  0  0  0  0  0999 V3000
M  V30 BEGIN CTAB
M  V30 COUNTS 76 78 0 0 0
M  V30 BEGIN ATOM
M  V30 1 C -2.3365 0.6556 -1.1786 0
M  V30 2 B -2.4688 1.1820 -1.5008 0
M  V30 3 C -2.9555 1.5338 -1.5641 0
M  V30 4 H -2.3273 0.3634 -1.6533 0
M  V30 5 H -2.2699 1.3964 -2.0024 0
M  V30 6 H -2.9770 2.0997 -1.4461 0
M  V30 7 H -2.9877 1.8240 -2.0639 0
M  V30 8 C -0.1928 -0.1380 -0.3695 0
M  V30 9 B 0.1178 0.1626 0.1105 0
M  V30 10 C 0.3803 0.2305 0.6685 0
M  V30 11 H -0.3545 -0.5608 -0.0645 0
M  V30 12 H 0.3194 0.6564 -0.1104 0
M  V30 13 H 0.5234 -0.2735 0.8434 0
M  V30 14 H 0.8231 0.5203 0.4821 0
M  V30 15 C 1.6139 0.8899 3.6493 0
M  V30 16 B 1.5240 0.9166 3.0599 0
M  V30 17 C 1.2052 1.0886 2.5768 0
M  V30 18 H 2.0013 0.4478 3.7215 0
M  V30 19 H 2.0978 0.8728 2.9448 0
M  V30 20 H 1.2960 1.6829 2.5553 0
M  V30 21 H 0.7450 1.3148 2.8144 0
M  V30 22 C 1.1295 -1.6434 -1.7787 0
M  V30 23 B 1.1128 -2.2751 -1.7998 0
M  V30 24 C 1.1968 -2.6923 -2.2277 0
M  V30 25 H 1.5917 -1.6635 -1.4592 0
M  V30 26 H 1.2267 -2.6796 -1.3949 0
M  V30 27 H 0.8060 -3.0811 -2.4066 0
M  V30 28 H 1.3486 -3.2152 -2.0352 0
M  V30 29 C 0.4447 0.3790 1.2625 0
M  V30 30 N 0.7704 0.7759 1.5906 0
M  V30 31 C 1.1926 0.9354 1.9863 0
M  V30 32 H 0.4050 -0.1090 1.5882 0
M  V30 33 H -0.0273 0.3612 1.5720 0
M  V30 34 H 0.5827 1.3208 1.5274 0
M  V30 35 H 1.5033 1.4052 1.7573 0
M  V30 36 H 1.7177 0.7652 1.8649 0
M  V30 37 C 0.1614 -0.4898 -0.7898 0
M  V30 38 N 0.5014 -0.8188 -1.1931 0
M  V30 39 C 0.6704 -1.3208 -1.5037 0
M  V30 40 H 0.0451 -0.9765 -0.5677 0
M  V30 41 H 0.3752 -0.0705 -1.0799 0
M  V30 42 H 0.8114 -0.4291 -1.4882 0
M  V30 43 H 0.3137 -1.3266 -1.9352 0
M  V30 44 H 0.3855 -1.7694 -1.3065 0
M  V30 45 C 1.4820 -1.5308 -2.2914 0
M  V30 46 N 1.5563 -1.9676 -2.7012 0
M  V30 47 C 1.5729 -2.5687 -2.6971 0
M  V30 48 H 1.5821 -1.1467 -2.7033 0
M  V30 49 H 2.0492 -1.3481 -2.2876 0
M  V30 50 H 1.7146 -1.8213 -3.2306 0
M  V30 51 H 2.0742 -2.8440 -2.7946 0
M  V30 52 H 1.5104 -2.8406 -3.1922 0
M  V30 53 C -2.9255 0.4476 -1.0613 0
M  V30 54 N -3.3890 0.8297 -1.1224 0
M  V30 55 C -3.5163 1.3014 -1.4727 0
M  V30 56 H -3.2401 0.1426 -0.6894 0
M  V30 57 H -3.1859 -0.0215 -1.3168 0
M  V30 58 H -3.8748 0.7202 -0.8405 0
M  V30 59 H -3.9195 1.2529 -1.8867 0
M  V30 60 H -3.9462 1.6396 -1.3178 0
M  V30 61 C -1.8196 0.5799 -0.8354 0
M  V30 62 N -1.2397 0.3803 -0.7700 0
M  V30 63 C -0.8160 0.0089 -0.5014 0
M  V30 64 H -1.7559 1.1192 -0.6730 0
M  V30 65 H -2.0886 0.5083 -0.3515 0
M  V30 66 H -1.0108 0.7851 -1.0940 0
M  V30 67 H -1.1317 -0.2183 -0.0862 0
M  V30 68 H -1.1118 -0.4734 -0.5160 0
M  V30 69 C 1.3664 0.7437 4.1777 0
M  V30 70 N 1.6636 1.1541 4.4806 0
M  V30 71 C 1.8932 1.3317 3.9716 0
M  V30 72 H 1.4323 0.2592 4.4930 0
M  V30 73 H 0.9164 0.7265 4.5152 0
M  V30 74 H 1.7134 1.2965 5.0000 0
M  V30 75 H 2.4622 1.4144 4.0605 0
M  V30 76 H 1.9397 1.8917 4.0787 0
M  V30 END ATOM
M  V30 BEGIN BOND
M  V30 1 1 1 2
M  V30 2 1 2 3
M  V30 3 1 1 4
M  V30 4 1 2 5
M  V30 5 1 3 6
M  V30 6 1 3 7
M  V30 7 1 8 9
M  V30 8 1 9 10
M  V30 9 1 8 11
M  V30 10 1 9 12
M  V30 11 1 10 13
M  V30 12 1 10 14
M  V30 13 1 15 16
M  V30 14 1 16 17
M  V30 15 1 15 18
M  V30 16 1 16 19
M  V30 17 1 17 20
M  V30 18 1 17 21
M  V30 19 1 22 23
M  V30 20 1 23 24
M  V30 21 1 22 25
M  V30 22 1 23 26
M  V30 23 1 24 27
M  V30 24 1 24 28
M  V30 25 1 29 30
M  V30 26 1 30 31
M  V30 27 1 29 32
M  V30 28 1 29 33
M  V30 29 1 30 34
M  V30 30 1 31 35
M  V30 31 1 31 36
M  V30 32 1 37 38
M  V30 33 1 38 39
M  V30 34 1 37 40
M  V30 35 1 37 41
M  V30 36 1 38 42
M  V30 37 1 39 43
M  V30 38 1 39 44
M  V30 39 1 45 46
M  V30 40 1 46 47
M  V30 41 1 45 48
M  V30 42 1 45 49
M  V30 43 1 46 50
M  V30 44 1 47 51
M  V30 45 1 47 52
M  V30 46 1 53 54
M  V30 47 1 54 55
M  V30 48 1 53 56
M  V30 49 1 53 57
M  V30 50 1 54 58
M  V30 51 1 55 59
M  V30 52 1 55 60
M  V30 53 1 61 62
M  V30 54 1 62 63
M  V30 55 1 61 64
M  V30 56 1 61 65
M  V30 57 1 62 66
M  V30 58 1 63 67
M  V30 59 1 63 68
M  V30 60 1 69 70
M  V30 61 1 70 71
M  V30 62 1 69 72
M  V30 63 1 69 73
M  V30 64 1 70 74
M  V30 65 1 71 75
M  V30 66 1 71 76
M  V30 67 1 1 53
M  V30 68 1 1 61
M  V30 69 1 3 55
M  V30 70 1 8 37
M  V30 71 1 8 63
M  V30 72 1 10 29
M  V30 73 1 15 69
M  V30 74 1 15 71
M  V30 75 1 17 31
M  V30 76 1 22 45
M  V30 77 1 22 39
M  V30 78 1 24 47
M  V30 END BOND
M  V30 END CTAB
M  END

$$$$
