
     RDKit          3D

  0  0  0  0  0  0  0  0  0  0999 V3000
M  V30 BEGIN CTAB
M  V30 COUNTS 76 78 0 0 0
M  V30 BEGIN ATOM
M  V30 1 C -2.8186 1.7818 0.7852 0
M  V30 2 B -3.3618 1.0697 1.1112 0
M  V30 3 C -4.0103 0.4763 1.1942 0
M  V30 4 H -3.0977 2.1756 0.9323 0
M  V30 5 H -3.4668 1.0684 1.5644 0
M  V30 6 H -4.3990 0.4550 1.5756 0
M  V30 7 H -4.2597 0.1291 1.5236 0
M  V30 8 C 2.1818 -1.1384 -0.3471 0
M  V30 9 B 2.9240 -1.6780 -0.3523 0
M  V30 10 C 3.6595 -1.8663 -0.5572 0
M  V30 11 H 2.1578 -1.5491 -0.2221 0
M  V30 12 H 3.0648 -2.1239 -0.1246 0
M  V30 13 H 3.9855 -2.3446 -0.6782 0
M  V30 14 H 4.0948 -2.2174 -0.3910 0
M  V30 15 C -1.9816 -2.4346 -0.3961 0
M  V30 16 B -1.6908 -1.9627 -1.3430 0
M  V30 17 C -1.2202 -1.4744 -2.1480 0
M  V30 18 H -2.2275 -2.8041 -0.6333 0
M  V30 19 H -1.9819 -2.2193 -1.6581 0
M  V30 20 H -1.3770 -1.4477 -2.6666 0
M  V30 21 H -1.6161 -1.3718 -2.4912 0
M  V30 22 C 2.9724 1.6222 0.4282 0
M  V30 23 B 2.2769 2.5713 0.6407 0
M  V30 24 C 1.3816 3.2650 0.8347 0
M  V30 25 H 3.3438 2.0102 0.4240 0
M  V30 26 H 2.5689 3.0039 0.6954 0
M  V30 27 H 1.5426 3.7663 0.7496 0
M  V30 28 H 1.5635 3.6929 1.0967 0
M  V30 29 C 3.7423 -1.1863 -0.8538 0
M  V30 30 N 3.4882 -0.2472 -0.6451 0
M  V30 31 C 3.3981 0.7764 -0.2228 0
M  V30 32 H 3.8836 -1.6098 -1.1773 0
M  V30 33 H 4.1083 -1.3760 -1.1975 0
M  V30 34 H 3.3559 -0.4816 -1.0330 0
M  V30 35 H 3.9266 0.9219 -0.2636 0
M  V30 36 H 3.7370 1.0293 -0.5472 0
M  V30 37 C 2.4764 -0.5538 0.5806 0
M  V30 38 N 2.8223 0.2488 1.0467 0
M  V30 39 C 3.1291 1.0880 1.0528 0
M  V30 40 H 2.7640 -0.7268 0.9723 0
M  V30 41 H 2.4212 -0.7354 1.0503 0
M  V30 42 H 2.9319 0.2701 1.5810 0
M  V30 43 H 3.3002 1.3470 1.5069 0
M  V30 44 H 3.5964 1.2454 1.3362 0
M  V30 45 C -2.4043 -2.8469 0.1801 0
M  V30 46 N -2.2446 -2.7427 0.7508 0
M  V30 47 C -1.8784 -2.6910 0.3795 0
M  V30 48 H -2.8814 -3.1404 0.2638 0
M  V30 49 H -2.6372 -3.3672 0.2023 0
M  V30 50 H -2.3432 -2.7911 1.2949 0
M  V30 51 H -1.7931 -3.1605 0.5912 0
M  V30 52 H -1.6764 -2.8763 0.8030 0
M  V30 53 C -3.4528 1.3209 0.2823 0
M  V30 54 N -3.9381 0.6684 0.2746 0
M  V30 55 C -4.4538 0.3588 0.6782 0
M  V30 56 H -3.5928 1.3994 -0.1891 0
M  V30 57 H -3.8099 1.5775 0.0418 0
M  V30 58 H -3.8337 0.2609 -0.0875 0
M  V30 59 H -5.0000 0.3328 0.5315 0
M  V30 60 H -4.9782 0.1668 0.8071 0
M  V30 61 C 1.4462 -1.1883 -1.3056 0
M  V30 62 N 0.6005 -1.1703 -2.0250 0
M  V30 63 C -0.3382 -1.1852 -2.4442 0
M  V30 64 H 1.5955 -1.1445 -1.7454 0
M  V30 65 H 1.5446 -1.5532 -1.6034 0
M  V30 66 H 0.6929 -1.1666 -2.5229 0
M  V30 67 H -0.3614 -1.2922 -2.9856 0
M  V30 68 H -0.4166 -0.9530 -2.9404 0
M  V30 69 C -1.9074 2.6048 0.9009 0
M  V30 70 N -0.8482 3.1404 0.9480 0
M  V30 71 C 0.2655 3.4494 0.9452 0
M  V30 72 H -2.0922 2.9780 1.2038 0
M  V30 73 H -2.1114 3.0633 0.8357 0
M  V30 74 H -0.9654 3.6149 1.0763 0
M  V30 75 H 0.2527 3.9760 0.8865 0
M  V30 76 H 0.2708 3.8915 1.2380 0
M  V30 END ATOM
M  V30 BEGIN BOND
M  V30 1 1 1 2
M  V30 2 1 2 3
M  V30 3 1 1 4
M  V30 4 1 2 5
M  V30 5 1 3 6
M  V30 6 1 3 7
M  V30 7 1 8 9
M  V30 8 1 9 10
M  V30 9 1 8 11
M  V30 10 1 9 12
M  V30 11 1 10 13
M  V30 12 1 10 14
M  V30 13 1 15 16
M  V30 14 1 16 17
M  V30 15 1 15 18
M  V30 16 1 16 19
M  V30 17 1 17 20
M  V30 18 1 17 21
M  V30 19 1 22 23
M  V30 20 1 23 24
M  V30 21 1 22 25
M  V30 22 1 23 26
M  V30 23 1 24 27
M  V30 24 1 24 28
M  V30 25 1 29 30
M  V30 26 1 30 31
M  V30 27 1 29 32
M  V30 28 1 29 33
M  V30 29 1 30 34
M  V30 30 1 31 35
M  V30 31 1 31 36
M  V30 32 1 37 38
M  V30 33 1 38 39
M  V30 34 1 37 40
M  V30 35 1 37 41
M  V30 36 1 38 42
M  V30 37 1 39 43
M  V30 38 1 39 44
M  V30 39 1 45 46
M  V30 40 1 46 47
M  V30 41 1 45 48
M  V30 42 1 45 49
M  V30 43 1 46 50
M  V30 44 1 47 51
M  V30 45 1 47 52
M  V30 46 1 53 54
M  V30 47 1 54 55
M  V30 48 1 53 56
M  V30 49 1 53 57
M  V30 50 1 54 58
M  V30 51 1 55 59
M  V30 52 1 55 60
M  V30 53 1 61 62
M  V30 54 1 62 63
M  V30 55 1 61 64
M  V30 56 1 61 65
M  V30 57 1 62 66
M  V30 58 1 63 67
M  V30 59 1 63 68
M  V30 60 1 69 70
M  V30 61 1 70 71
M  V30 62 1 69 72
M  V30 63 1 69 73
M  V30 64 1 70 74
M  V30 65 1 71 75
M  V30 66 1 71 76
M  V30 67 1 1 69
M  V30 68 1 1 53
M  V30 69 1 3 55
M  V30 70 1 8 37
M  V30 71 1 8 61
M  V30 72 1 10 29
M  V30 73 1 15 45
M  V30 74 1 15 47
M  V30 75 1 17 63
M  V30 76 1 22 31
M  V30 77 1 22 39
M  V30 78 1 24 71
M  V30 END BOND
M  V30 END CTAB
M  END

$$$$
