
     RDKit          3D

  0  0  0  0  0  0  0  0  0  0999 V3000
M  V30 BEGIN CTAB
M  V30 COUNTS 76 78 0 0 0
M  V30 BEGIN ATOM
M  V30 1 C -0.2053 -0.0763 -0.6263 0
M  V30 2 B -0.1159 -0.2426 -0.6594 0
M  V30 3 C -0.0487 -0.3761 -0.7580 0
M  V30 4 H -0.2815 -0.0869 -0.6822 0
M  V30 5 H -0.0891 -0.3152 -0.6274 0
M  V30 6 H -0.0487 -0.4773 -0.7887 0
M  V30 7 H 0.0256 -0.4488 -0.7665 0
M  V30 8 C 0.2293 0.0046 0.2748 0
M  V30 9 B 0.2320 0.1819 0.3985 0
M  V30 10 C 0.2054 0.3670 0.4845 0
M  V30 11 H 0.3143 0.0016 0.3129 0
M  V30 12 H 0.2979 0.1925 0.4716 0
M  V30 13 H 0.2785 0.4129 0.5515 0
M  V30 14 H 0.2204 0.3955 0.5880 0
M  V30 15 C -0.0114 -0.4935 0.6075 0
M  V30 16 B -0.0100 -0.5718 0.4322 0
M  V30 17 C 0.0543 -0.6480 0.2901 0
M  V30 18 H -0.0417 -0.5829 0.6567 0
M  V30 19 H -0.0922 -0.6035 0.3954 0
M  V30 20 H 0.0173 -0.7476 0.2668 0
M  V30 21 H 0.0050 -0.7140 0.2205 0
M  V30 22 C -0.0057 0.5572 -0.0203 0
M  V30 23 B -0.0711 0.6407 -0.1682 0
M  V30 24 C -0.1925 0.6496 -0.2932 0
M  V30 25 H 0.0677 0.6089 -0.0420 0
M  V30 26 H 0.0174 0.7000 -0.1951 0
M  V30 27 H -0.2185 0.7505 -0.3228 0
M  V30 28 H -0.1515 0.7465 -0.2949 0
M  V30 29 C 0.1269 0.5319 0.4659 0
M  V30 30 N 0.0330 0.5935 0.3322 0
M  V30 31 C -0.0292 0.5880 0.1617 0
M  V30 32 H 0.1697 0.6185 0.5255 0
M  V30 33 H 0.1129 0.5993 0.5562 0
M  V30 34 H -0.0030 0.6754 0.3814 0
M  V30 35 H -0.1033 0.6090 0.2113 0
M  V30 36 H -0.1162 0.6200 0.1478 0
M  V30 37 C 0.1215 0.0911 0.1469 0
M  V30 38 N 0.0724 0.2261 0.0306 0
M  V30 39 C 0.0500 0.3897 -0.0456 0
M  V30 40 H 0.0471 0.0786 0.1803 0
M  V30 41 H 0.0917 0.0214 0.1166 0
M  V30 42 H 0.0366 0.1959 -0.0314 0
M  V30 43 H 0.1081 0.3774 -0.1257 0
M  V30 44 H 0.0572 0.4253 -0.1279 0
M  V30 45 C -0.0571 -0.4467 0.7471 0
M  V30 46 N 0.0068 -0.3590 0.7753 0
M  V30 47 C 0.0609 -0.4290 0.7204 0
M  V30 48 H -0.0951 -0.5140 0.8323 0
M  V30 49 H -0.1198 -0.4533 0.8398 0
M  V30 50 H 0.0181 -0.2758 0.8374 0
M  V30 51 H 0.1351 -0.4201 0.7914 0
M  V30 52 H 0.1017 -0.4830 0.8027 0
M  V30 53 C -0.1330 -0.1454 -0.7667 0
M  V30 54 N -0.0993 -0.2618 -0.8771 0
M  V30 55 C -0.0537 -0.3869 -0.8979 0
M  V30 56 H -0.0652 -0.1197 -0.8214 0
M  V30 57 H -0.1392 -0.0930 -0.8347 0
M  V30 58 H -0.1138 -0.2714 -0.9867 0
M  V30 59 H -0.0189 -0.4299 -1.0000 0
M  V30 60 H -0.0678 -0.4677 -0.9755 0
M  V30 61 C 0.2906 -0.2177 0.2556 0
M  V30 62 N 0.2727 -0.4246 0.2341 0
M  V30 63 C 0.1995 -0.5987 0.2325 0
M  V30 64 H 0.3860 -0.2388 0.2315 0
M  V30 65 H 0.3676 -0.2592 0.2960 0
M  V30 66 H 0.3530 -0.4868 0.2216 0
M  V30 67 H 0.2565 -0.6929 0.2457 0
M  V30 68 H 0.2307 -0.6905 0.1820 0
M  V30 69 C -0.3042 0.1137 -0.5247 0
M  V30 70 N -0.3294 0.3194 -0.4421 0
M  V30 71 C -0.3018 0.5177 -0.3762 0
M  V30 72 H -0.4004 0.1288 -0.5258 0
M  V30 73 H -0.3833 0.0970 -0.5726 0
M  V30 74 H -0.4182 0.3525 -0.4688 0
M  V30 75 H -0.3811 0.5850 -0.3680 0
M  V30 76 H -0.3543 0.5860 -0.4390 0
M  V30 END ATOM
M  V30 BEGIN BOND
M  V30 1 1 1 2
M  V30 2 1 2 3
M  V30 3 1 1 4
M  V30 4 1 2 5
M  V30 5 1 3 6
M  V30 6 1 3 7
M  V30 7 1 8 9
M  V30 8 1 9 10
M  V30 9 1 8 11
M  V30 10 1 9 12
M  V30 11 1 10 13
M  V30 12 1 10 14
M  V30 13 1 15 16
M  V30 14 1 16 17
M  V30 15 1 15 18
M  V30 16 1 16 19
M  V30 17 1 17 20
M  V30 18 1 17 21
M  V30 19 1 22 23
M  V30 20 1 23 24
M  V30 21 1 22 25
M  V30 22 1 23 26
M  V30 23 1 24 27
M  V30 24 1 24 28
M  V30 25 1 29 30
M  V30 26 1 30 31
M  V30 27 1 29 32
M  V30 28 1 29 33
M  V30 29 1 30 34
M  V30 30 1 31 35
M  V30 31 1 31 36
M  V30 32 1 37 38
M  V30 33 1 38 39
M  V30 34 1 37 40
M  V30 35 1 37 41
M  V30 36 1 38 42
M  V30 37 1 39 43
M  V30 38 1 39 44
M  V30 39 1 45 46
M  V30 40 1 46 47
M  V30 41 1 45 48
M  V30 42 1 45 49
M  V30 43 1 46 50
M  V30 44 1 47 51
M  V30 45 1 47 52
M  V30 46 1 53 54
M  V30 47 1 54 55
M  V30 48 1 53 56
M  V30 49 1 53 57
M  V30 50 1 54 58
M  V30 51 1 55 59
M  V30 52 1 55 60
M  V30 53 1 61 62
M  V30 54 1 62 63
M  V30 55 1 61 64
M  V30 56 1 61 65
M  V30 57 1 62 66
M  V30 58 1 63 67
M  V30 59 1 63 68
M  V30 60 1 69 70
M  V30 61 1 70 71
M  V30 62 1 69 72
M  V30 63 1 69 73
M  V30 64 1 70 74
M  V30 65 1 71 75
M  V30 66 1 71 76
M  V30 67 1 1 69
M  V30 68 1 1 53
M  V30 69 1 3 55
M  V30 70 1 8 37
M  V30 71 1 8 61
M  V30 72 1 10 29
M  V30 73 1 15 45
M  V30 74 1 15 47
M  V30 75 1 17 63
M  V30 76 1 22 31
M  V30 77 1 22 39
M  V30 78 1 24 71
M  V30 END BOND
M  V30 END CTAB
M  END

$$$$
