
     RDKit          3D

  0  0  0  0  0  0  0  0  0  0999 V3000
M  V30 BEGIN CTAB
M  V30 COUNTS 85 90 0 0 0
M  V30 BEGIN ATOM
M  V30 1 C 0.6222 -0.0139 -0.3240 0
M  V30 2 C 0.7502 -0.0070 -0.1879 0
M  V30 3 C 0.7807 -0.1284 -0.0559 0
M  V30 4 O 0.7252 -0.1060 0.1095 0
M  V30 5 C 0.6686 -0.0041 0.2410 0
M  V30 6 C 0.5202 -0.0362 0.3424 0
M  V30 7 C 0.3458 -0.0438 0.3790 0
M  V30 8 H 0.6554 -0.1587 -0.4106 0
M  V30 9 H 0.7101 -0.0431 -0.4671 0
M  V30 10 H 0.8840 -0.0608 -0.2743 0
M  V30 11 H 0.9339 -0.2001 -0.0488 0
M  V30 12 H 0.8386 -0.2884 -0.0753 0
M  V30 13 H 0.7740 -0.0892 0.3429 0
M  V30 14 H 0.5711 0.0263 0.4918 0
M  V30 15 H 0.5770 -0.1724 0.4378 0
M  V30 16 H 0.3646 -0.1611 0.5084 0
M  V30 17 H 0.3495 0.0568 0.5211 0
M  V30 18 C 0.2996 0.0704 -0.3967 0
M  V30 19 C 0.4798 0.0936 -0.3777 0
M  V30 20 C 0.5736 0.2528 -0.3628 0
M  V30 21 O 0.7026 0.2504 -0.2408 0
M  V30 22 C 0.8104 0.1576 -0.1349 0
M  V30 23 C 0.8348 0.2031 0.0419 0
M  V30 24 C 0.7706 0.1437 0.2043 0
M  V30 25 H 0.2791 0.1605 -0.5422 0
M  V30 26 H 0.2950 -0.0361 -0.5350 0
M  V30 27 H 0.5069 0.0845 -0.5432 0
M  V30 28 H 0.6349 0.3269 -0.5039 0
M  V30 29 H 0.5769 0.4161 -0.4045 0
M  V30 30 H 0.9596 0.2085 -0.2000 0
M  V30 31 H 1.0000 0.2275 0.0626 0
M  V30 32 H 0.8991 0.3595 0.0607 0
M  V30 33 H 0.9017 0.1435 0.3107 0
M  V30 34 H 0.8062 0.2750 0.3041 0
M  V30 35 C -0.6117 -0.4192 -0.3023 0
M  V30 36 C -0.5385 -0.2834 -0.2140 0
M  V30 37 C -0.3583 -0.2826 -0.1800 0
M  V30 38 O -0.2244 -0.1725 -0.1314 0
M  V30 39 C -0.1043 -0.0411 -0.0760 0
M  V30 40 C -0.0000 0.0190 -0.2254 0
M  V30 41 C 0.1310 0.0805 -0.3367 0
M  V30 42 H -0.6036 -0.5880 -0.3183 0
M  V30 43 H -0.6293 -0.4626 -0.4642 0
M  V30 44 H -0.5686 -0.2127 -0.3669 0
M  V30 45 H -0.3220 -0.4455 -0.1341 0
M  V30 46 H -0.3104 -0.3871 -0.2926 0
M  V30 47 H -0.1710 0.0668 -0.1281 0
M  V30 48 H -0.0122 -0.0998 -0.3259 0
M  V30 49 H -0.0798 0.1399 -0.3101 0
M  V30 50 H 0.0715 0.0762 -0.4962 0
M  V30 51 H 0.0886 0.2393 -0.4035 0
M  V30 52 C -0.7721 -0.3804 -0.2429 0
M  V30 53 C -0.7003 -0.2670 -0.1290 0
M  V30 54 C -0.8185 -0.1481 -0.0536 0
M  V30 55 O -0.8332 -0.0408 0.0813 0
M  V30 56 C -0.8024 0.0702 0.2124 0
M  V30 57 C -0.8147 0.2416 0.2046 0
M  V30 58 C -0.6650 0.3223 0.2591 0
M  V30 59 H -0.8703 -0.5161 -0.2211 0
M  V30 60 H -0.8923 -0.3756 -0.3598 0
M  V30 61 H -0.7384 -0.4016 -0.0271 0
M  V30 62 H -0.9638 -0.2188 -0.0167 0
M  V30 63 H -0.9402 -0.0813 -0.1561 0
M  V30 64 H -0.9439 0.0255 0.2915 0
M  V30 65 H -0.9185 0.3429 0.1234 0
M  V30 66 H -0.9533 0.2952 0.2797 0
M  V30 67 H -0.6870 0.4821 0.2128 0
M  V30 68 H -0.7044 0.4438 0.3719 0
M  V30 69 C -0.6699 0.0808 0.3349 0
M  V30 70 C -0.5409 0.2062 0.3083 0
M  V30 71 C -0.3635 0.2146 0.2700 0
M  V30 72 O -0.2310 0.1168 0.1962 0
M  V30 73 C -0.0981 0.0099 0.1134 0
M  V30 74 C 0.0231 -0.0628 0.2395 0
M  V30 75 C 0.1736 -0.0657 0.3435 0
M  V30 76 H -0.7020 -0.0266 0.4651 0
M  V30 77 H -0.7376 0.0908 0.4916 0
M  V30 78 H -0.5368 0.2596 0.4688 0
M  V30 79 H -0.3389 0.3844 0.2615 0
M  V30 80 H -0.3199 0.2921 0.4093 0
M  V30 81 H -0.0696 0.1486 0.1241 0
M  V30 82 H 0.0049 -0.2288 0.2686 0
M  V30 83 H -0.0384 -0.1172 0.3694 0
M  V30 84 H 0.1401 -0.0143 0.5000 0
M  V30 85 H 0.1643 -0.2171 0.4387 0
M  V30 END ATOM
M  V30 BEGIN BOND
M  V30 1 1 1 2
M  V30 2 1 2 3
M  V30 3 1 3 4
M  V30 4 1 4 5
M  V30 5 1 5 6
M  V30 6 1 6 7
M  V30 7 1 1 8
M  V30 8 1 1 9
M  V30 9 1 2 10
M  V30 10 1 3 11
M  V30 11 1 3 12
M  V30 12 1 5 13
M  V30 13 1 6 14
M  V30 14 1 6 15
M  V30 15 1 7 16
M  V30 16 1 7 17
M  V30 17 1 18 19
M  V30 18 1 19 20
M  V30 19 1 20 21
M  V30 20 1 21 22
M  V30 21 1 22 23
M  V30 22 1 23 24
M  V30 23 1 18 25
M  V30 24 1 18 26
M  V30 25 1 19 27
M  V30 26 1 20 28
M  V30 27 1 20 29
M  V30 28 1 22 30
M  V30 29 1 23 31
M  V30 30 1 23 32
M  V30 31 1 24 33
M  V30 32 1 24 34
M  V30 33 1 35 36
M  V30 34 1 36 37
M  V30 35 1 37 38
M  V30 36 1 38 39
M  V30 37 1 39 40
M  V30 38 1 40 41
M  V30 39 1 35 42
M  V30 40 1 35 43
M  V30 41 1 36 44
M  V30 42 1 37 45
M  V30 43 1 37 46
M  V30 44 1 39 47
M  V30 45 1 40 48
M  V30 46 1 40 49
M  V30 47 1 41 50
M  V30 48 1 41 51
M  V30 49 1 52 53
M  V30 50 1 53 54
M  V30 51 1 54 55
M  V30 52 1 55 56
M  V30 53 1 56 57
M  V30 54 1 57 58
M  V30 55 1 52 59
M  V30 56 1 52 60
M  V30 57 1 53 61
M  V30 58 1 54 62
M  V30 59 1 54 63
M  V30 60 1 56 64
M  V30 61 1 57 65
M  V30 62 1 57 66
M  V30 63 1 58 67
M  V30 64 1 58 68
M  V30 65 1 69 70
M  V30 66 1 70 71
M  V30 67 1 71 72
M  V30 68 1 72 73
M  V30 69 1 73 74
M  V30 70 1 74 75
M  V30 71 1 69 76
M  V30 72 1 69 77
M  V30 73 1 70 78
M  V30 74 1 71 79
M  V30 75 1 71 80
M  V30 76 1 73 81
M  V30 77 1 74 82
M  V30 78 1 74 83
M  V30 79 1 75 84
M  V30 80 1 75 85
M  V30 81 1 35 52
M  V30 82 1 18 41
M  V30 83 1 1 19
M  V30 84 1 2 22
M  V30 85 1 56 69
M  V30 86 1 5 24
M  V30 87 1 58 70
M  V30 88 1 36 53
M  V30 89 1 7 75
M  V30 90 1 39 73
M  V30 END BOND
M  V30 END CTAB
M  END

$$$$
