
     RDKit          3D

  0  0  0  0  0  0  0  0  0  0999 V3000
M  V30 BEGIN CTAB
M  V30 COUNTS 85 90 0 0 0
M  V30 BEGIN ATOM
M  V30 1 C -1.1995 -1.4505 -1.2478 0
M  V30 2 C -0.8571 -1.5306 0.3898 0
M  V30 3 C -0.4750 -2.4918 0.7286 0
M  V30 4 O 0.6342 -2.6946 0.8382 0
M  V30 5 C 1.7495 -2.6489 0.9901 0
M  V30 6 C 2.8296 -1.9221 1.6859 0
M  V30 7 C 3.3375 -0.6924 2.1219 0
M  V30 8 H -1.6736 -1.3800 -1.5676 0
M  V30 9 H -1.2067 -1.2187 -1.7472 0
M  V30 10 H -1.4104 -1.6611 0.5300 0
M  V30 11 H -0.7063 -3.1537 0.8901 0
M  V30 12 H -1.0267 -2.9076 0.9170 0
M  V30 13 H 2.1750 -3.1925 1.1595 0
M  V30 14 H 3.4564 -2.2708 1.7325 0
M  V30 15 H 3.2718 -2.3227 2.0945 0
M  V30 16 H 3.8720 -0.8314 2.5874 0
M  V30 17 H 4.0461 -0.7608 2.2295 0
M  V30 18 C -4.3202 0.8997 0.4594 0
M  V30 19 C -3.7699 0.4718 -0.4122 0
M  V30 20 C -3.4616 -0.8045 -1.2724 0
M  V30 21 O -2.5290 -1.8104 -1.9665 0
M  V30 22 C -1.4182 -2.6968 -2.5493 0
M  V30 23 C -1.3703 -2.3262 -3.4100 0
M  V30 24 C -1.3452 -1.6147 -2.6947 0
M  V30 25 H -5.0000 1.0649 0.6606 0
M  V30 26 H -4.9019 0.7542 0.8774 0
M  V30 27 H -4.4385 0.4546 -0.5388 0
M  V30 28 H -4.0751 -1.1504 -1.3234 0
M  V30 29 H -4.0707 -0.8692 -1.6318 0
M  V30 30 H -1.6344 -3.2433 -2.9823 0
M  V30 31 H -1.5989 -2.5982 -4.0970 0
M  V30 32 H -1.2113 -2.4602 -4.1524 0
M  V30 33 H -1.6825 -1.4815 -3.3428 0
M  V30 34 H -1.2694 -1.4116 -3.3937 0
M  V30 35 C 1.5985 4.0006 -1.1278 0
M  V30 36 C 2.5874 3.5687 -0.9666 0
M  V30 37 C 3.2278 2.6493 -0.0139 0
M  V30 38 O 3.2394 1.6871 1.1023 0
M  V30 39 C 3.1093 0.6786 2.1933 0
M  V30 40 C 2.3390 0.8012 3.2835 0
M  V30 41 C 1.1476 0.5047 3.6570 0
M  V30 42 H 1.7229 4.5546 -0.8949 0
M  V30 43 H 2.0735 4.3246 -1.0679 0
M  V30 44 H 3.1795 3.8798 -1.1354 0
M  V30 45 H 3.8365 2.5207 -0.2198 0
M  V30 46 H 3.8135 2.8880 -0.1286 0
M  V30 47 H 3.7021 0.9074 2.4765 0
M  V30 48 H 2.6023 1.2506 3.7807 0
M  V30 49 H 2.7415 0.8887 3.8835 0
M  V30 50 H 1.0471 0.9306 4.2559 0
M  V30 51 H 1.2237 0.6006 4.3884 0
M  V30 52 C 0.1078 -0.1919 3.0827 0
M  V30 53 C -0.4145 -1.0762 1.8721 0
M  V30 54 C -0.0039 -2.0541 1.8965 0
M  V30 55 O 0.5872 -2.5598 1.0557 0
M  V30 56 C 1.1031 -3.0893 0.1090 0
M  V30 57 C 0.7237 -3.5768 -1.2284 0
M  V30 58 C -0.2112 -3.4483 -2.2373 0
M  V30 59 H -0.1696 0.1285 3.6504 0
M  V30 60 H -0.1262 -0.2384 3.7676 0
M  V30 61 H -0.8068 -1.0504 2.3956 0
M  V30 62 H 0.0902 -2.4262 2.4989 0
M  V30 63 H -0.3044 -2.4305 2.4394 0
M  V30 64 H 1.5128 -3.6075 -0.0030 0
M  V30 65 H 1.2159 -3.9696 -1.5935 0
M  V30 66 H 0.9489 -4.2464 -1.4193 0
M  V30 67 H 0.1096 -3.8492 -2.7777 0
M  V30 68 H -0.2022 -4.0849 -2.6231 0
M  V30 69 C -3.8278 1.5725 0.7277 0
M  V30 70 C -3.3141 1.7400 -0.1780 0
M  V30 71 C -2.2937 2.7922 -0.6223 0
M  V30 72 O -0.9466 3.3470 -1.0186 0
M  V30 73 C 0.4178 3.8798 -1.4119 0
M  V30 74 C 1.1883 4.2478 -2.1239 0
M  V30 75 C 2.1672 4.1803 -1.8544 0
M  V30 76 H -3.9046 1.6727 1.4757 0
M  V30 77 H -3.6820 1.9140 1.3059 0
M  V30 78 H -3.8379 2.1749 -0.2763 0
M  V30 79 H -2.6625 3.2825 -0.9281 0
M  V30 80 H -2.5895 3.4041 -0.5352 0
M  V30 81 H 0.1818 4.4792 -1.5837 0
M  V30 82 H 1.2520 4.7039 -2.6557 0
M  V30 83 H 1.0148 4.4465 -2.7683 0
M  V30 84 H 2.1158 4.6341 -2.2099 0
M  V30 85 H 2.6491 4.6156 -2.2573 0
M  V30 END ATOM
M  V30 BEGIN BOND
M  V30 1 1 1 2
M  V30 2 1 2 3
M  V30 3 1 3 4
M  V30 4 1 4 5
M  V30 5 1 5 6
M  V30 6 1 6 7
M  V30 7 1 1 8
M  V30 8 1 1 9
M  V30 9 1 2 10
M  V30 10 1 3 11
M  V30 11 1 3 12
M  V30 12 1 5 13
M  V30 13 1 6 14
M  V30 14 1 6 15
M  V30 15 1 7 16
M  V30 16 1 7 17
M  V30 17 1 18 19
M  V30 18 1 19 20
M  V30 19 1 20 21
M  V30 20 1 21 22
M  V30 21 1 22 23
M  V30 22 1 23 24
M  V30 23 1 18 25
M  V30 24 1 18 26
M  V30 25 1 19 27
M  V30 26 1 20 28
M  V30 27 1 20 29
M  V30 28 1 22 30
M  V30 29 1 23 31
M  V30 30 1 23 32
M  V30 31 1 24 33
M  V30 32 1 24 34
M  V30 33 1 35 36
M  V30 34 1 36 37
M  V30 35 1 37 38
M  V30 36 1 38 39
M  V30 37 1 39 40
M  V30 38 1 40 41
M  V30 39 1 35 42
M  V30 40 1 35 43
M  V30 41 1 36 44
M  V30 42 1 37 45
M  V30 43 1 37 46
M  V30 44 1 39 47
M  V30 45 1 40 48
M  V30 46 1 40 49
M  V30 47 1 41 50
M  V30 48 1 41 51
M  V30 49 1 52 53
M  V30 50 1 53 54
M  V30 51 1 54 55
M  V30 52 1 55 56
M  V30 53 1 56 57
M  V30 54 1 57 58
M  V30 55 1 52 59
M  V30 56 1 52 60
M  V30 57 1 53 61
M  V30 58 1 54 62
M  V30 59 1 54 63
M  V30 60 1 56 64
M  V30 61 1 57 65
M  V30 62 1 57 66
M  V30 63 1 58 67
M  V30 64 1 58 68
M  V30 65 1 69 70
M  V30 66 1 70 71
M  V30 67 1 71 72
M  V30 68 1 72 73
M  V30 69 1 73 74
M  V30 70 1 74 75
M  V30 71 1 69 76
M  V30 72 1 69 77
M  V30 73 1 70 78
M  V30 74 1 71 79
M  V30 75 1 71 80
M  V30 76 1 73 81
M  V30 77 1 74 82
M  V30 78 1 74 83
M  V30 79 1 75 84
M  V30 80 1 75 85
M  V30 81 1 18 69
M  V30 82 1 35 73
M  V30 83 1 41 52
M  V30 84 1 22 58
M  V30 85 1 19 70
M  V30 86 1 1 24
M  V30 87 1 36 75
M  V30 88 1 7 39
M  V30 89 1 2 53
M  V30 90 1 5 56
M  V30 END BOND
M  V30 END CTAB
M  END

$$$$
