
     RDKit          3D

  0  0  0  0  0  0  0  0  0  0999 V3000
M  V30 BEGIN CTAB
M  V30 COUNTS 85 90 0 0 0
M  V30 BEGIN ATOM
M  V30 1 C -0.4352 -0.4814 0.2427 0
M  V30 2 C -0.3723 -0.3232 0.1976 0
M  V30 3 C -0.1933 -0.2258 0.2167 0
M  V30 4 O -0.0079 -0.1923 0.0689 0
M  V30 5 C 0.1695 -0.1579 -0.0972 0
M  V30 6 C 0.2536 -0.0749 -0.1663 0
M  V30 7 C 0.2101 -0.0246 -0.3352 0
M  V30 8 H -0.4460 -0.5776 0.3292 0
M  V30 9 H -0.4896 -0.5925 0.2866 0
M  V30 10 H -0.4175 -0.3474 0.2997 0
M  V30 11 H -0.2426 -0.1700 0.3264 0
M  V30 12 H -0.2056 -0.2208 0.3463 0
M  V30 13 H 0.2066 -0.2251 -0.0277 0
M  V30 14 H 0.3327 -0.1137 -0.0938 0
M  V30 15 H 0.3345 -0.0463 -0.1136 0
M  V30 16 H 0.1574 0.0411 -0.3997 0
M  V30 17 H 0.2163 0.0720 -0.3754 0
M  V30 18 C 0.8815 0.0817 -0.5161 0
M  V30 19 C 0.7083 0.1140 -0.4122 0
M  V30 20 C 0.5165 0.1638 -0.2356 0
M  V30 21 O 0.3602 0.2784 -0.0035 0
M  V30 22 C 0.2076 0.3908 0.2393 0
M  V30 23 C 0.1990 0.5053 0.4342 0
M  V30 24 C 0.1062 0.5414 0.6082 0
M  V30 25 H 0.9800 0.0579 -0.5946 0
M  V30 26 H 0.9868 0.0215 -0.5414 0
M  V30 27 H 0.7665 0.0360 -0.4576 0
M  V30 28 H 0.5288 0.0668 -0.2992 0
M  V30 29 H 0.5290 0.1369 -0.3282 0
M  V30 30 H 0.2721 0.4706 0.2392 0
M  V30 31 H 0.2845 0.5584 0.4934 0
M  V30 32 H 0.2487 0.6090 0.4570 0
M  V30 33 H 0.1356 0.6315 0.6847 0
M  V30 34 H 0.1426 0.5648 0.7157 0
M  V30 35 C -0.5705 -0.2377 0.0723 0
M  V30 36 C -0.5028 -0.1187 0.2369 0
M  V30 37 C -0.3374 0.0599 0.3452 0
M  V30 38 O -0.1747 0.2303 0.3654 0
M  V30 39 C -0.0051 0.3888 0.3704 0
M  V30 40 C -0.0658 0.5116 0.5274 0
M  V30 41 C -0.0422 0.5186 0.6697 0
M  V30 42 H -0.6100 -0.3336 0.0316 0
M  V30 43 H -0.5550 -0.3015 -0.0246 0
M  V30 44 H -0.4639 -0.1282 0.3278 0
M  V30 45 H -0.3353 0.0978 0.4464 0
M  V30 46 H -0.2846 0.0621 0.4381 0
M  V30 47 H -0.0223 0.4817 0.3723 0
M  V30 48 H -0.1215 0.5892 0.5958 0
M  V30 49 H -0.1162 0.6160 0.5380 0
M  V30 50 H -0.1268 0.4944 0.7534 0
M  V30 51 H -0.0844 0.5358 0.7804 0
M  V30 52 C 0.9095 0.1710 -0.5591 0
M  V30 53 C 0.7553 0.1483 -0.5434 0
M  V30 54 C 0.5830 0.1000 -0.5346 0
M  V30 55 O 0.4417 -0.0200 -0.4176 0
M  V30 56 C 0.2991 -0.1418 -0.2930 0
M  V30 57 C 0.2502 -0.2186 -0.4277 0
M  V30 58 C 0.1973 -0.1107 -0.4781 0
M  V30 59 H 1.0000 0.2117 -0.6104 0
M  V30 60 H 0.9898 0.2104 -0.5200 0
M  V30 61 H 0.8137 0.1988 -0.6382 0
M  V30 62 H 0.6176 0.1591 -0.6219 0
M  V30 63 H 0.5603 0.1708 -0.6233 0
M  V30 64 H 0.3605 -0.2316 -0.2925 0
M  V30 65 H 0.2736 -0.3258 -0.4665 0
M  V30 66 H 0.2365 -0.2967 -0.5148 0
M  V30 67 H 0.1997 -0.1404 -0.5973 0
M  V30 68 H 0.1459 -0.0983 -0.5826 0
M  V30 69 C -0.4335 -0.4295 0.1196 0
M  V30 70 C -0.4791 -0.2671 0.0499 0
M  V30 71 C -0.5991 -0.1524 -0.1022 0
M  V30 72 O -0.6960 -0.2045 -0.1077 0
M  V30 73 C -0.7001 -0.2729 -0.0216 0
M  V30 74 C -0.7795 -0.3110 0.0883 0
M  V30 75 C -0.6901 -0.2230 0.2177 0
M  V30 76 H -0.4265 -0.5334 0.0820 0
M  V30 77 H -0.3781 -0.5222 0.1338 0
M  V30 78 H -0.5228 -0.1897 0.0063 0
M  V30 79 H -0.6454 -0.0601 -0.1794 0
M  V30 80 H -0.6770 -0.1118 -0.1995 0
M  V30 81 H -0.7726 -0.3181 -0.1148 0
M  V30 82 H -0.8645 -0.3979 0.0595 0
M  V30 83 H -0.9037 -0.3436 0.0886 0
M  V30 84 H -0.7674 -0.2751 0.2917 0
M  V30 85 H -0.8047 -0.2086 0.2737 0
M  V30 END ATOM
M  V30 BEGIN BOND
M  V30 1 1 1 2
M  V30 2 1 2 3
M  V30 3 1 3 4
M  V30 4 1 4 5
M  V30 5 1 5 6
M  V30 6 1 6 7
M  V30 7 1 1 8
M  V30 8 1 1 9
M  V30 9 1 2 10
M  V30 10 1 3 11
M  V30 11 1 3 12
M  V30 12 1 5 13
M  V30 13 1 6 14
M  V30 14 1 6 15
M  V30 15 1 7 16
M  V30 16 1 7 17
M  V30 17 1 18 19
M  V30 18 1 19 20
M  V30 19 1 20 21
M  V30 20 1 21 22
M  V30 21 1 22 23
M  V30 22 1 23 24
M  V30 23 1 18 25
M  V30 24 1 18 26
M  V30 25 1 19 27
M  V30 26 1 20 28
M  V30 27 1 20 29
M  V30 28 1 22 30
M  V30 29 1 23 31
M  V30 30 1 23 32
M  V30 31 1 24 33
M  V30 32 1 24 34
M  V30 33 1 35 36
M  V30 34 1 36 37
M  V30 35 1 37 38
M  V30 36 1 38 39
M  V30 37 1 39 40
M  V30 38 1 40 41
M  V30 39 1 35 42
M  V30 40 1 35 43
M  V30 41 1 36 44
M  V30 42 1 37 45
M  V30 43 1 37 46
M  V30 44 1 39 47
M  V30 45 1 40 48
M  V30 46 1 40 49
M  V30 47 1 41 50
M  V30 48 1 41 51
M  V30 49 1 52 53
M  V30 50 1 53 54
M  V30 51 1 54 55
M  V30 52 1 55 56
M  V30 53 1 56 57
M  V30 54 1 57 58
M  V30 55 1 52 59
M  V30 56 1 52 60
M  V30 57 1 53 61
M  V30 58 1 54 62
M  V30 59 1 54 63
M  V30 60 1 56 64
M  V30 61 1 57 65
M  V30 62 1 57 66
M  V30 63 1 58 67
M  V30 64 1 58 68
M  V30 65 1 69 70
M  V30 66 1 70 71
M  V30 67 1 71 72
M  V30 68 1 72 73
M  V30 69 1 73 74
M  V30 70 1 74 75
M  V30 71 1 69 76
M  V30 72 1 69 77
M  V30 73 1 70 78
M  V30 74 1 71 79
M  V30 75 1 71 80
M  V30 76 1 73 81
M  V30 77 1 74 82
M  V30 78 1 74 83
M  V30 79 1 75 84
M  V30 80 1 75 85
M  V30 81 1 1 69
M  V30 82 1 18 52
M  V30 83 1 35 73
M  V30 84 1 36 75
M  V30 85 1 22 39
M  V30 86 1 19 53
M  V30 87 1 2 70
M  V30 88 1 5 56
M  V30 89 1 7 58
M  V30 90 1 24 41
M  V30 END BOND
M  V30 END CTAB
M  END

$$$$
