
     RDKit          3D

  0  0  0  0  0  0  0  0  0  0999 V3000
M  V30 BEGIN CTAB
M  V30 COUNTS 85 90 0 0 0
M  V30 BEGIN ATOM
M  V30 1 C 0.4679 -0.4023 -4.1363 0
M  V30 2 C 0.7232 -0.4669 -3.2098 0
M  V30 3 C 1.5148 -1.1656 -2.2608 0
M  V30 4 O 1.8007 -1.7947 -1.0520 0
M  V30 5 C 1.9467 -2.4686 0.1367 0
M  V30 6 C 2.2961 -2.8534 0.7297 0
M  V30 7 C 2.2710 -3.6346 0.5915 0
M  V30 8 H 0.6172 -0.7029 -4.6452 0
M  V30 9 H 0.2732 -0.5875 -4.6545 0
M  V30 10 H 1.1179 -0.5143 -3.6419 0
M  V30 11 H 1.8909 -1.4164 -2.6598 0
M  V30 12 H 2.0741 -1.1261 -2.4648 0
M  V30 13 H 2.3483 -2.1200 0.4372 0
M  V30 14 H 2.6670 -2.5624 1.0359 0
M  V30 15 H 2.1071 -2.5249 1.2527 0
M  V30 16 H 2.4368 -3.7855 0.1397 0
M  V30 17 H 1.9463 -3.8365 0.2443 0
M  V30 18 C -1.7899 -2.1150 -0.9729 0
M  V30 19 C -1.1191 -1.3874 -0.5392 0
M  V30 20 C -0.5442 -0.0037 -0.2401 0
M  V30 21 O 0.0799 1.2235 0.3403 0
M  V30 22 C 0.6740 2.3880 1.0393 0
M  V30 23 C 1.2075 2.9994 1.9179 0
M  V30 24 C 1.8371 3.2650 2.5975 0
M  V30 25 H -2.3853 -2.2854 -1.1055 0
M  V30 26 H -2.1598 -2.3050 -1.4485 0
M  V30 27 H -1.5255 -1.3780 -0.7677 0
M  V30 28 H -0.8928 0.1232 -0.4723 0
M  V30 29 H -0.3835 0.3010 -0.5202 0
M  V30 30 H 0.8918 2.6774 0.6850 0
M  V30 31 H 1.0847 3.2825 2.3710 0
M  V30 32 H 1.2889 3.5419 2.0814 0
M  V30 33 H 1.9309 3.2518 3.1902 0
M  V30 34 H 2.0117 3.6522 3.0739 0
M  V30 35 C -3.0322 2.5054 0.5656 0
M  V30 36 C -2.5746 2.8620 1.3620 0
M  V30 37 C -1.5558 3.4423 1.5570 0
M  V30 38 O -0.3869 3.4262 1.4601 0
M  V30 39 C 0.7772 3.2806 1.3479 0
M  V30 40 C 1.9059 3.4859 1.6764 0
M  V30 41 C 2.4399 3.3107 2.3752 0
M  V30 42 H -3.5233 2.8231 0.3283 0
M  V30 43 H -3.5365 2.8946 0.6584 0
M  V30 44 H -2.9030 3.3077 1.6539 0
M  V30 45 H -1.7135 3.8883 1.9700 0
M  V30 46 H -1.7130 4.0433 1.6266 0
M  V30 47 H 0.8979 3.8381 1.1560 0
M  V30 48 H 2.3120 3.9913 1.6509 0
M  V30 49 H 2.4970 3.6474 1.5207 0
M  V30 50 H 2.9725 3.5329 2.6691 0
M  V30 51 H 2.9252 3.1279 2.7361 0
M  V30 52 C -1.7837 -2.8561 -0.8554 0
M  V30 53 C -1.0843 -2.5546 -0.3598 0
M  V30 54 C -0.3832 -3.2546 0.2215 0
M  V30 55 O 0.5975 -3.3590 0.5993 0
M  V30 56 C 1.6115 -3.3394 0.8658 0
M  V30 57 C 2.2016 -4.1305 1.3862 0
M  V30 58 C 2.5838 -4.3850 0.9575 0
M  V30 59 H -2.2395 -3.2597 -1.1500 0
M  V30 60 H -2.0751 -3.4349 -0.9360 0
M  V30 61 H -1.3095 -3.0376 -0.3181 0
M  V30 62 H -0.7063 -3.7211 0.4823 0
M  V30 63 H -0.4173 -3.8422 0.3196 0
M  V30 64 H 1.6427 -3.5405 1.4447 0
M  V30 65 H 2.2700 -4.6060 1.8586 0
M  V30 66 H 2.6018 -4.4878 1.8144 0
M  V30 67 H 3.0570 -4.7940 0.9685 0
M  V30 68 H 2.7300 -5.0000 1.0055 0
M  V30 69 C 0.0484 0.1716 -4.2275 0
M  V30 70 C -0.2468 0.3148 -3.2907 0
M  V30 71 C -1.2752 0.9445 -2.4875 0
M  V30 72 O -2.0531 1.3342 -1.3089 0
M  V30 73 C -2.7705 1.7116 -0.0900 0
M  V30 74 C -3.2139 1.6011 0.9471 0
M  V30 75 C -3.2147 2.2302 1.6170 0
M  V30 76 H -0.1296 0.2676 -4.8340 0
M  V30 77 H 0.2211 0.3932 -4.8106 0
M  V30 78 H -0.2986 0.6315 -3.7360 0
M  V30 79 H -1.4217 1.3446 -2.9096 0
M  V30 80 H -1.6817 1.0710 -2.9277 0
M  V30 81 H -3.2868 1.7741 -0.3284 0
M  V30 82 H -3.7111 1.2575 1.1286 0
M  V30 83 H -3.4872 1.2668 1.4023 0
M  V30 84 H -3.7555 2.2335 1.9873 0
M  V30 85 H -3.5144 2.3788 2.1769 0
M  V30 END ATOM
M  V30 BEGIN BOND
M  V30 1 1 1 2
M  V30 2 1 2 3
M  V30 3 1 3 4
M  V30 4 1 4 5
M  V30 5 1 5 6
M  V30 6 1 6 7
M  V30 7 1 1 8
M  V30 8 1 1 9
M  V30 9 1 2 10
M  V30 10 1 3 11
M  V30 11 1 3 12
M  V30 12 1 5 13
M  V30 13 1 6 14
M  V30 14 1 6 15
M  V30 15 1 7 16
M  V30 16 1 7 17
M  V30 17 1 18 19
M  V30 18 1 19 20
M  V30 19 1 20 21
M  V30 20 1 21 22
M  V30 21 1 22 23
M  V30 22 1 23 24
M  V30 23 1 18 25
M  V30 24 1 18 26
M  V30 25 1 19 27
M  V30 26 1 20 28
M  V30 27 1 20 29
M  V30 28 1 22 30
M  V30 29 1 23 31
M  V30 30 1 23 32
M  V30 31 1 24 33
M  V30 32 1 24 34
M  V30 33 1 35 36
M  V30 34 1 36 37
M  V30 35 1 37 38
M  V30 36 1 38 39
M  V30 37 1 39 40
M  V30 38 1 40 41
M  V30 39 1 35 42
M  V30 40 1 35 43
M  V30 41 1 36 44
M  V30 42 1 37 45
M  V30 43 1 37 46
M  V30 44 1 39 47
M  V30 45 1 40 48
M  V30 46 1 40 49
M  V30 47 1 41 50
M  V30 48 1 41 51
M  V30 49 1 52 53
M  V30 50 1 53 54
M  V30 51 1 54 55
M  V30 52 1 55 56
M  V30 53 1 56 57
M  V30 54 1 57 58
M  V30 55 1 52 59
M  V30 56 1 52 60
M  V30 57 1 53 61
M  V30 58 1 54 62
M  V30 59 1 54 63
M  V30 60 1 56 64
M  V30 61 1 57 65
M  V30 62 1 57 66
M  V30 63 1 58 67
M  V30 64 1 58 68
M  V30 65 1 69 70
M  V30 66 1 70 71
M  V30 67 1 71 72
M  V30 68 1 72 73
M  V30 69 1 73 74
M  V30 70 1 74 75
M  V30 71 1 69 76
M  V30 72 1 69 77
M  V30 73 1 70 78
M  V30 74 1 71 79
M  V30 75 1 71 80
M  V30 76 1 73 81
M  V30 77 1 74 82
M  V30 78 1 74 83
M  V30 79 1 75 84
M  V30 80 1 75 85
M  V30 81 1 1 69
M  V30 82 1 18 52
M  V30 83 1 35 73
M  V30 84 1 36 75
M  V30 85 1 22 39
M  V30 86 1 19 53
M  V30 87 1 2 70
M  V30 88 1 5 56
M  V30 89 1 7 58
M  V30 90 1 24 41
M  V30 END BOND
M  V30 END CTAB
M  END

$$$$
