
     RDKit          3D

  0  0  0  0  0  0  0  0  0  0999 V3000
M  V30 BEGIN CTAB
M  V30 COUNTS 85 90 0 0 0
M  V30 BEGIN ATOM
M  V30 1 C -0.9019 -0.1719 0.0977 0
M  V30 2 C -0.8296 -0.1274 -0.0220 0
M  V30 3 C -0.7690 -0.0935 -0.1735 0
M  V30 4 O -0.6354 -0.0289 -0.2515 0
M  V30 5 C -0.4825 0.0307 -0.3057 0
M  V30 6 C -0.3829 0.1710 -0.3107 0
M  V30 7 C -0.2281 0.2091 -0.2386 0
M  V30 8 H -1.0000 -0.1791 0.1354 0
M  V30 9 H -0.9846 -0.2336 0.1219 0
M  V30 10 H -0.9259 -0.1518 -0.0388 0
M  V30 11 H -0.8607 -0.0912 -0.2189 0
M  V30 12 H -0.8112 -0.1449 -0.2344 0
M  V30 13 H -0.5411 0.0559 -0.3803 0
M  V30 14 H -0.4344 0.2521 -0.3414 0
M  V30 15 H -0.4115 0.2261 -0.3907 0
M  V30 16 H -0.2179 0.2956 -0.2639 0
M  V30 17 H -0.2723 0.2903 -0.2434 0
M  V30 18 C 0.3440 -0.4577 0.0150 0
M  V30 19 C 0.4321 -0.3489 0.1782 0
M  V30 20 C 0.4381 -0.2922 0.3292 0
M  V30 21 O 0.4626 -0.1327 0.3756 0
M  V30 22 C 0.5092 0.0303 0.3942 0
M  V30 23 C 0.5049 0.2190 0.4270 0
M  V30 24 C 0.5013 0.3754 0.3500 0
M  V30 25 H 0.4058 -0.5312 -0.0086 0
M  V30 26 H 0.3613 -0.5541 0.0266 0
M  V30 27 H 0.4769 -0.4330 0.1924 0
M  V30 28 H 0.4746 -0.3638 0.3942 0
M  V30 29 H 0.4153 -0.3557 0.4031 0
M  V30 30 H 0.5431 0.0229 0.4864 0
M  V30 31 H 0.5594 0.2478 0.5091 0
M  V30 32 H 0.4998 0.2533 0.5208 0
M  V30 33 H 0.5114 0.4542 0.4083 0
M  V30 34 H 0.4327 0.4487 0.3639 0
M  V30 35 C -0.8226 -0.1400 0.1705 0
M  V30 36 C -0.7646 -0.0829 0.0593 0
M  V30 37 C -0.6289 -0.0321 -0.0244 0
M  V30 38 O -0.4957 -0.0551 -0.1541 0
M  V30 39 C -0.3799 -0.0882 -0.2969 0
M  V30 40 C -0.2150 -0.1997 -0.3800 0
M  V30 41 C -0.0747 -0.3309 -0.3725 0
M  V30 42 H -0.7866 -0.1588 0.2608 0
M  V30 43 H -0.8796 -0.1549 0.2530 0
M  V30 44 H -0.8433 -0.0444 0.1018 0
M  V30 45 H -0.6528 0.0119 0.0452 0
M  V30 46 H -0.6895 0.0312 -0.0122 0
M  V30 47 H -0.4143 -0.1153 -0.3738 0
M  V30 48 H -0.2048 -0.1991 -0.4754 0
M  V30 49 H -0.1557 -0.1926 -0.4533 0
M  V30 50 H -0.0920 -0.3989 -0.4502 0
M  V30 51 H -0.0400 -0.3765 -0.4597 0
M  V30 52 C 0.5266 -0.2065 0.2424 0
M  V30 53 C 0.5840 -0.0302 0.2906 0
M  V30 54 C 0.6522 0.1262 0.2418 0
M  V30 55 O 0.6138 0.2824 0.2208 0
M  V30 56 C 0.5527 0.4269 0.2111 0
M  V30 57 C 0.4999 0.5383 0.0793 0
M  V30 58 C 0.3704 0.5357 -0.0358 0
M  V30 59 H 0.5209 -0.2313 0.3033 0
M  V30 60 H 0.6029 -0.2600 0.2524 0
M  V30 61 H 0.6740 -0.0517 0.3281 0
M  V30 62 H 0.7393 0.1604 0.2387 0
M  V30 63 H 0.7404 0.1120 0.2102 0
M  V30 64 H 0.6233 0.4965 0.2308 0
M  V30 65 H 0.5323 0.6349 0.0826 0
M  V30 66 H 0.5750 0.6052 0.0562 0
M  V30 67 H 0.3819 0.6321 -0.0579 0
M  V30 68 H 0.4130 0.5922 -0.1011 0
M  V30 69 C 0.2141 -0.4716 -0.1425 0
M  V30 70 C 0.0557 -0.3831 -0.2481 0
M  V30 71 C -0.0175 -0.2484 -0.1933 0
M  V30 72 O -0.0454 -0.0542 -0.1669 0
M  V30 73 C -0.0671 0.1496 -0.1541 0
M  V30 74 C 0.0667 0.2975 -0.0930 0
M  V30 75 C 0.2183 0.4351 -0.0866 0
M  V30 76 H 0.2225 -0.5703 -0.1652 0
M  V30 77 H 0.2594 -0.5399 -0.2008 0
M  V30 78 H 0.0692 -0.4670 -0.2967 0
M  V30 79 H -0.0343 -0.3246 -0.1506 0
M  V30 80 H -0.0586 -0.3260 -0.2071 0
M  V30 81 H -0.0962 0.1833 -0.1041 0
M  V30 82 H 0.0206 0.3239 -0.0274 0
M  V30 83 H 0.0812 0.3254 -0.0259 0
M  V30 84 H 0.2055 0.5052 -0.1285 0
M  V30 85 H 0.2598 0.4376 -0.1478 0
M  V30 END ATOM
M  V30 BEGIN BOND
M  V30 1 1 1 2
M  V30 2 1 2 3
M  V30 3 1 3 4
M  V30 4 1 4 5
M  V30 5 1 5 6
M  V30 6 1 6 7
M  V30 7 1 1 8
M  V30 8 1 1 9
M  V30 9 1 2 10
M  V30 10 1 3 11
M  V30 11 1 3 12
M  V30 12 1 5 13
M  V30 13 1 6 14
M  V30 14 1 6 15
M  V30 15 1 7 16
M  V30 16 1 7 17
M  V30 17 1 18 19
M  V30 18 1 19 20
M  V30 19 1 20 21
M  V30 20 1 21 22
M  V30 21 1 22 23
M  V30 22 1 23 24
M  V30 23 1 18 25
M  V30 24 1 18 26
M  V30 25 1 19 27
M  V30 26 1 20 28
M  V30 27 1 20 29
M  V30 28 1 22 30
M  V30 29 1 23 31
M  V30 30 1 23 32
M  V30 31 1 24 33
M  V30 32 1 24 34
M  V30 33 1 35 36
M  V30 34 1 36 37
M  V30 35 1 37 38
M  V30 36 1 38 39
M  V30 37 1 39 40
M  V30 38 1 40 41
M  V30 39 1 35 42
M  V30 40 1 35 43
M  V30 41 1 36 44
M  V30 42 1 37 45
M  V30 43 1 37 46
M  V30 44 1 39 47
M  V30 45 1 40 48
M  V30 46 1 40 49
M  V30 47 1 41 50
M  V30 48 1 41 51
M  V30 49 1 52 53
M  V30 50 1 53 54
M  V30 51 1 54 55
M  V30 52 1 55 56
M  V30 53 1 56 57
M  V30 54 1 57 58
M  V30 55 1 52 59
M  V30 56 1 52 60
M  V30 57 1 53 61
M  V30 58 1 54 62
M  V30 59 1 54 63
M  V30 60 1 56 64
M  V30 61 1 57 65
M  V30 62 1 57 66
M  V30 63 1 58 67
M  V30 64 1 58 68
M  V30 65 1 69 70
M  V30 66 1 70 71
M  V30 67 1 71 72
M  V30 68 1 72 73
M  V30 69 1 73 74
M  V30 70 1 74 75
M  V30 71 1 69 76
M  V30 72 1 69 77
M  V30 73 1 70 78
M  V30 74 1 71 79
M  V30 75 1 71 80
M  V30 76 1 73 81
M  V30 77 1 74 82
M  V30 78 1 74 83
M  V30 79 1 75 84
M  V30 80 1 75 85
M  V30 81 1 1 35
M  V30 82 1 18 69
M  V30 83 1 19 52
M  V30 84 1 7 73
M  V30 85 1 22 53
M  V30 86 1 2 36
M  V30 87 1 58 75
M  V30 88 1 24 56
M  V30 89 1 41 70
M  V30 90 1 5 39
M  V30 END BOND
M  V30 END CTAB
M  END

$$$$
