
     RDKit          3D

  0  0  0  0  0  0  0  0  0  0999 V3000
M  V30 BEGIN CTAB
M  V30 COUNTS 85 90 0 0 0
M  V30 BEGIN ATOM
M  V30 1 C 3.6612 0.2226 0.4209 0
M  V30 2 C 2.4057 0.2629 1.3783 0
M  V30 3 C 2.4618 -0.9589 1.6023 0
M  V30 4 O 1.3974 -1.1278 1.7140 0
M  V30 5 C 0.2291 -1.1428 1.5138 0
M  V30 6 C -1.2899 -0.4891 1.2268 0
M  V30 7 C -2.5458 0.1783 0.2064 0
M  V30 8 H 4.4329 0.3059 0.5845 0
M  V30 9 H 4.3795 -0.0043 0.2251 0
M  V30 10 H 2.9591 0.3805 1.8810 0
M  V30 11 H 2.9461 -1.6582 1.4986 0
M  V30 12 H 3.0637 -1.4993 1.8190 0
M  V30 13 H 0.3061 -1.4379 2.2300 0
M  V30 14 H -1.6151 -0.3816 1.9243 0
M  V30 15 H -1.3865 -0.7084 1.9588 0
M  V30 16 H -3.2053 0.5186 0.3905 0
M  V30 17 H -2.9268 0.8269 0.2651 0
M  V30 18 C 4.1797 0.2827 -0.6281 0
M  V30 19 C 3.2244 0.2650 -0.7038 0
M  V30 20 C 3.1522 1.4961 -1.3391 0
M  V30 21 O 2.1919 1.9447 -1.2613 0
M  V30 22 C 1.1154 2.0977 -0.9519 0
M  V30 23 C 1.4900 3.3937 0.1464 0
M  V30 24 C 1.5380 4.1945 1.3318 0
M  V30 25 H 4.6951 0.2608 -1.3118 0
M  V30 26 H 4.9367 0.3685 -0.9858 0
M  V30 27 H 3.7153 0.4934 -1.1890 0
M  V30 28 H 3.4132 2.1592 -1.7656 0
M  V30 29 H 3.7032 1.9324 -1.7860 0
M  V30 30 H 1.1838 2.7243 -1.2149 0
M  V30 31 H 1.9675 3.9223 0.3157 0
M  V30 32 H 1.6400 4.1156 0.0059 0
M  V30 33 H 1.5774 5.0000 1.3963 0
M  V30 34 H 1.8959 4.8457 1.6338 0
M  V30 35 C 2.4260 -0.9634 0.1074 0
M  V30 36 C 1.1225 -1.7714 1.0086 0
M  V30 37 C 0.0173 -2.7183 1.4393 0
M  V30 38 O -1.2371 -2.8773 0.9774 0
M  V30 39 C -2.3917 -2.7386 0.2874 0
M  V30 40 C -3.1883 -3.1673 -0.8643 0
M  V30 41 C -3.3498 -2.5785 -2.0710 0
M  V30 42 H 2.8792 -1.4975 -0.2125 0
M  V30 43 H 3.0833 -1.3110 0.1215 0
M  V30 44 H 1.4598 -2.4202 1.2776 0
M  V30 45 H 0.1495 -3.4133 1.8533 0
M  V30 46 H -0.0967 -3.2143 2.0939 0
M  V30 47 H -2.8600 -3.2666 0.6949 0
M  V30 48 H -3.7754 -3.7213 -0.7976 0
M  V30 49 H -3.4600 -3.9200 -0.9721 0
M  V30 50 H -3.6181 -3.1559 -2.5685 0
M  V30 51 H -3.9669 -2.9741 -2.4314 0
M  V30 52 C -1.5967 -1.3145 -0.6645 0
M  V30 53 C -2.1990 -1.4596 0.4793 0
M  V30 54 C -1.9222 -0.2359 1.3438 0
M  V30 55 O -0.5327 0.5282 1.7068 0
M  V30 56 C 0.9775 1.1339 1.9456 0
M  V30 57 C 1.0122 2.5978 2.5428 0
M  V30 58 C 1.2516 3.8676 2.4028 0
M  V30 59 H -1.7126 -1.9666 -0.9296 0
M  V30 60 H -2.1210 -1.7015 -0.8772 0
M  V30 61 H -2.9307 -1.7062 0.7910 0
M  V30 62 H -2.6879 -0.0918 1.7878 0
M  V30 63 H -2.7072 0.1491 1.5072 0
M  V30 64 H 1.0767 1.3446 2.6017 0
M  V30 65 H 1.0392 2.8103 3.2598 0
M  V30 66 H 0.8036 3.0835 3.0769 0
M  V30 67 H 1.4443 4.4165 2.9605 0
M  V30 68 H 1.0550 4.5170 2.8277 0
M  V30 69 C -0.6531 -0.5695 -1.4348 0
M  V30 70 C 0.0883 0.6931 -1.7195 0
M  V30 71 C -0.6947 0.0706 -2.7865 0
M  V30 72 O -1.8509 -0.6302 -2.8737 0
M  V30 73 C -2.9868 -1.3009 -2.6158 0
M  V30 74 C -3.5871 -0.3068 -2.2584 0
M  V30 75 C -3.4016 0.2927 -1.0853 0
M  V30 76 H -0.5266 -0.9993 -1.9932 0
M  V30 77 H -0.4348 -1.1908 -1.6779 0
M  V30 78 H 0.2973 0.9689 -2.2866 0
M  V30 79 H -0.5991 -0.0817 -3.5531 0
M  V30 80 H -0.4518 0.2810 -3.4857 0
M  V30 81 H -3.3253 -1.5073 -3.3035 0
M  V30 82 H -4.0847 -0.2932 -2.8865 0
M  V30 83 H -4.1872 0.0140 -2.6873 0
M  V30 84 H -3.9673 0.8436 -1.1294 0
M  V30 85 H -3.9709 0.6685 -1.4609 0
M  V30 END ATOM
M  V30 BEGIN BOND
M  V30 1 1 1 2
M  V30 2 1 2 3
M  V30 3 1 3 4
M  V30 4 1 4 5
M  V30 5 1 5 6
M  V30 6 1 6 7
M  V30 7 1 1 8
M  V30 8 1 1 9
M  V30 9 1 2 10
M  V30 10 1 3 11
M  V30 11 1 3 12
M  V30 12 1 5 13
M  V30 13 1 6 14
M  V30 14 1 6 15
M  V30 15 1 7 16
M  V30 16 1 7 17
M  V30 17 1 18 19
M  V30 18 1 19 20
M  V30 19 1 20 21
M  V30 20 1 21 22
M  V30 21 1 22 23
M  V30 22 1 23 24
M  V30 23 1 18 25
M  V30 24 1 18 26
M  V30 25 1 19 27
M  V30 26 1 20 28
M  V30 27 1 20 29
M  V30 28 1 22 30
M  V30 29 1 23 31
M  V30 30 1 23 32
M  V30 31 1 24 33
M  V30 32 1 24 34
M  V30 33 1 35 36
M  V30 34 1 36 37
M  V30 35 1 37 38
M  V30 36 1 38 39
M  V30 37 1 39 40
M  V30 38 1 40 41
M  V30 39 1 35 42
M  V30 40 1 35 43
M  V30 41 1 36 44
M  V30 42 1 37 45
M  V30 43 1 37 46
M  V30 44 1 39 47
M  V30 45 1 40 48
M  V30 46 1 40 49
M  V30 47 1 41 50
M  V30 48 1 41 51
M  V30 49 1 52 53
M  V30 50 1 53 54
M  V30 51 1 54 55
M  V30 52 1 55 56
M  V30 53 1 56 57
M  V30 54 1 57 58
M  V30 55 1 52 59
M  V30 56 1 52 60
M  V30 57 1 53 61
M  V30 58 1 54 62
M  V30 59 1 54 63
M  V30 60 1 56 64
M  V30 61 1 57 65
M  V30 62 1 57 66
M  V30 63 1 58 67
M  V30 64 1 58 68
M  V30 65 1 69 70
M  V30 66 1 70 71
M  V30 67 1 71 72
M  V30 68 1 72 73
M  V30 69 1 73 74
M  V30 70 1 74 75
M  V30 71 1 69 76
M  V30 72 1 69 77
M  V30 73 1 70 78
M  V30 74 1 71 79
M  V30 75 1 71 80
M  V30 76 1 73 81
M  V30 77 1 74 82
M  V30 78 1 74 83
M  V30 79 1 75 84
M  V30 80 1 75 85
M  V30 81 1 1 18
M  V30 82 1 19 35
M  V30 83 1 5 36
M  V30 84 1 52 69
M  V30 85 1 2 56
M  V30 86 1 7 75
M  V30 87 1 22 70
M  V30 88 1 41 73
M  V30 89 1 24 58
M  V30 90 1 39 53
M  V30 END BOND
M  V30 END CTAB
M  END

$$$$
