
     RDKit          3D

  0  0  0  0  0  0  0  0  0  0999 V3000
M  V30 BEGIN CTAB
M  V30 COUNTS 85 90 0 0 0
M  V30 BEGIN ATOM
M  V30 1 C 0.0886 -0.5229 -0.3501 0
M  V30 2 C 0.1768 -0.5737 -0.1657 0
M  V30 3 C 0.0662 -0.6747 -0.0121 0
M  V30 4 O 0.0203 -0.5633 0.1886 0
M  V30 5 C -0.0572 -0.4008 0.2979 0
M  V30 6 C 0.0352 -0.2748 0.4380 0
M  V30 7 C 0.1906 -0.1394 0.4818 0
M  V30 8 H 0.2166 -0.5286 -0.4948 0
M  V30 9 H 0.1047 -0.6793 -0.4639 0
M  V30 10 H 0.2742 -0.7060 -0.2610 0
M  V30 11 H 0.1049 -0.8744 -0.0179 0
M  V30 12 H -0.0246 -0.8542 0.0061 0
M  V30 13 H -0.1458 -0.5030 0.4431 0
M  V30 14 H 0.0291 -0.3745 0.6090 0
M  V30 15 H -0.0854 -0.2569 0.5868 0
M  V30 16 H 0.1434 -0.0957 0.6591 0
M  V30 17 H 0.2546 -0.1982 0.6591 0
M  V30 18 C -0.4773 0.4937 -0.5463 0
M  V30 19 C -0.4361 0.3955 -0.3724 0
M  V30 20 C -0.4523 0.1893 -0.3827 0
M  V30 21 O -0.3993 -0.0018 -0.3460 0
M  V30 22 C -0.3650 -0.2047 -0.3083 0
M  V30 23 C -0.2473 -0.3275 -0.4386 0
M  V30 24 C -0.0712 -0.4374 -0.4511 0
M  V30 25 H -0.6505 0.5249 -0.6291 0
M  V30 26 H -0.4658 0.5041 -0.7348 0
M  V30 27 H -0.6214 0.4216 -0.3138 0
M  V30 28 H -0.5022 0.1666 -0.5584 0
M  V30 29 H -0.6471 0.1715 -0.3837 0
M  V30 30 H -0.5205 -0.2475 -0.3936 0
M  V30 31 H -0.2707 -0.3166 -0.6205 0
M  V30 32 H -0.3719 -0.4369 -0.5472 0
M  V30 33 H -0.1214 -0.5737 -0.5826 0
M  V30 34 H -0.0026 -0.4212 -0.6304 0
M  V30 35 C 0.2351 0.6745 0.1229 0
M  V30 36 C 0.2698 0.5715 0.2990 0
M  V30 37 C 0.3359 0.3897 0.3763 0
M  V30 38 O 0.3383 0.1872 0.3804 0
M  V30 39 C 0.3492 -0.0213 0.3995 0
M  V30 40 C 0.5090 -0.1335 0.3116 0
M  V30 41 C 0.5519 -0.2749 0.1654 0
M  V30 42 H 0.3758 0.7266 0.0005 0
M  V30 43 H 0.3675 0.8171 0.1027 0
M  V30 44 H 0.4363 0.6566 0.3341 0
M  V30 45 H 0.5183 0.4327 0.4147 0
M  V30 46 H 0.3691 0.4286 0.5607 0
M  V30 47 H 0.4378 -0.0006 0.5581 0
M  V30 48 H 0.6827 -0.0738 0.3289 0
M  V30 49 H 0.6374 -0.1788 0.4558 0
M  V30 50 H 0.7119 -0.3580 0.2419 0
M  V30 51 H 0.7236 -0.2319 0.0897 0
M  V30 52 C 0.4790 -0.4172 0.0326 0
M  V30 53 C 0.3166 -0.5327 -0.0341 0
M  V30 54 C 0.1954 -0.6327 0.1030 0
M  V30 55 O -0.0217 -0.5501 0.1168 0
M  V30 56 C -0.1802 -0.4277 0.1705 0
M  V30 57 C -0.3474 -0.3726 0.0576 0
M  V30 58 C -0.4207 -0.2964 -0.1236 0
M  V30 59 H 0.6305 -0.5374 0.0469 0
M  V30 60 H 0.6218 -0.4144 -0.0974 0
M  V30 61 H 0.4459 -0.6525 -0.1047 0
M  V30 62 H 0.2613 -0.8268 0.1144 0
M  V30 63 H 0.2205 -0.7861 0.2361 0
M  V30 64 H -0.2979 -0.5395 0.2862 0
M  V30 65 H -0.4995 -0.3637 0.1759 0
M  V30 66 H -0.4876 -0.5084 0.0948 0
M  V30 67 H -0.5760 -0.4120 -0.1641 0
M  V30 68 H -0.6047 -0.2881 -0.0808 0
M  V30 69 C -0.4055 0.6636 -0.4795 0
M  V30 70 C -0.3605 0.5751 -0.3017 0
M  V30 71 C -0.2360 0.6947 -0.1882 0
M  V30 72 O -0.0953 0.7280 -0.0530 0
M  V30 73 C 0.0513 0.7570 0.0806 0
M  V30 74 C 0.0354 0.8118 0.2670 0
M  V30 75 C 0.1575 0.7077 0.3897 0
M  V30 76 H -0.5254 0.8098 -0.5145 0
M  V30 77 H -0.3440 0.7725 -0.6228 0
M  V30 78 H -0.5215 0.6516 -0.2196 0
M  V30 79 H -0.3517 0.8375 -0.1288 0
M  V30 80 H -0.1765 0.8356 -0.2989 0
M  V30 81 H 0.0976 0.9253 0.0067 0
M  V30 82 H 0.0557 1.0000 0.2927 0
M  V30 83 H -0.0884 0.9088 0.3706 0
M  V30 84 H 0.2538 0.8344 0.4990 0
M  V30 85 H 0.0988 0.7539 0.5636 0
M  V30 END ATOM
M  V30 BEGIN BOND
M  V30 1 1 1 2
M  V30 2 1 2 3
M  V30 3 1 3 4
M  V30 4 1 4 5
M  V30 5 1 5 6
M  V30 6 1 6 7
M  V30 7 1 1 8
M  V30 8 1 1 9
M  V30 9 1 2 10
M  V30 10 1 3 11
M  V30 11 1 3 12
M  V30 12 1 5 13
M  V30 13 1 6 14
M  V30 14 1 6 15
M  V30 15 1 7 16
M  V30 16 1 7 17
M  V30 17 1 18 19
M  V30 18 1 19 20
M  V30 19 1 20 21
M  V30 20 1 21 22
M  V30 21 1 22 23
M  V30 22 1 23 24
M  V30 23 1 18 25
M  V30 24 1 18 26
M  V30 25 1 19 27
M  V30 26 1 20 28
M  V30 27 1 20 29
M  V30 28 1 22 30
M  V30 29 1 23 31
M  V30 30 1 23 32
M  V30 31 1 24 33
M  V30 32 1 24 34
M  V30 33 1 35 36
M  V30 34 1 36 37
M  V30 35 1 37 38
M  V30 36 1 38 39
M  V30 37 1 39 40
M  V30 38 1 40 41
M  V30 39 1 35 42
M  V30 40 1 35 43
M  V30 41 1 36 44
M  V30 42 1 37 45
M  V30 43 1 37 46
M  V30 44 1 39 47
M  V30 45 1 40 48
M  V30 46 1 40 49
M  V30 47 1 41 50
M  V30 48 1 41 51
M  V30 49 1 52 53
M  V30 50 1 53 54
M  V30 51 1 54 55
M  V30 52 1 55 56
M  V30 53 1 56 57
M  V30 54 1 57 58
M  V30 55 1 52 59
M  V30 56 1 52 60
M  V30 57 1 53 61
M  V30 58 1 54 62
M  V30 59 1 54 63
M  V30 60 1 56 64
M  V30 61 1 57 65
M  V30 62 1 57 66
M  V30 63 1 58 67
M  V30 64 1 58 68
M  V30 65 1 69 70
M  V30 66 1 70 71
M  V30 67 1 71 72
M  V30 68 1 72 73
M  V30 69 1 73 74
M  V30 70 1 74 75
M  V30 71 1 69 76
M  V30 72 1 69 77
M  V30 73 1 70 78
M  V30 74 1 71 79
M  V30 75 1 71 80
M  V30 76 1 73 81
M  V30 77 1 74 82
M  V30 78 1 74 83
M  V30 79 1 75 84
M  V30 80 1 75 85
M  V30 81 1 18 69
M  V30 82 1 35 73
M  V30 83 1 41 52
M  V30 84 1 22 58
M  V30 85 1 19 70
M  V30 86 1 1 24
M  V30 87 1 36 75
M  V30 88 1 7 39
M  V30 89 1 2 53
M  V30 90 1 5 56
M  V30 END BOND
M  V30 END CTAB
M  END

$$$$
