
     RDKit          3D

  0  0  0  0  0  0  0  0  0  0999 V3000
M  V30 BEGIN CTAB
M  V30 COUNTS 85 90 0 0 0
M  V30 BEGIN ATOM
M  V30 1 C 0.3134 0.2917 0.3843 0
M  V30 2 C 0.3767 0.0895 0.4202 0
M  V30 3 C 0.2425 -0.0508 0.5182 0
M  V30 4 O 0.1045 -0.1993 0.4700 0
M  V30 5 C -0.0166 -0.3495 0.3768 0
M  V30 6 C 0.0775 -0.5414 0.3473 0
M  V30 7 C 0.2113 -0.6506 0.2287 0
M  V30 8 H 0.2446 0.3833 0.5402 0
M  V30 9 H 0.3843 0.4001 0.5275 0
M  V30 10 H 0.4589 0.1119 0.5856 0
M  V30 11 H 0.1890 -0.0096 0.7005 0
M  V30 12 H 0.3042 -0.1038 0.6910 0
M  V30 13 H -0.0780 -0.3864 0.5492 0
M  V30 14 H 0.0931 -0.6280 0.5177 0
M  V30 15 H -0.0149 -0.6905 0.4164 0
M  V30 16 H 0.1556 -0.8341 0.2107 0
M  V30 17 H 0.2823 -0.7861 0.3427 0
M  V30 18 C -0.7140 0.3522 -0.2296 0
M  V30 19 C -0.7709 0.1579 -0.2564 0
M  V30 20 C -0.7027 -0.0240 -0.1859 0
M  V30 21 O -0.5279 -0.0998 -0.1254 0
M  V30 22 C -0.3361 -0.1438 -0.0571 0
M  V30 23 C -0.3167 -0.2723 0.1123 0
M  V30 24 C -0.2091 -0.3149 0.2884 0
M  V30 25 H -0.8391 0.4922 -0.2129 0
M  V30 26 H -0.8136 0.4479 -0.0914 0
M  V30 27 H -0.9455 0.1521 -0.1812 0
M  V30 28 H -0.8047 -0.1682 -0.2678 0
M  V30 29 H -0.8522 -0.0904 -0.0899 0
M  V30 30 H -0.4385 -0.0897 0.0527 0
M  V30 31 H -0.4775 -0.3215 0.1928 0
M  V30 32 H -0.4072 -0.4388 0.0638 0
M  V30 33 H -0.3239 -0.4397 0.3709 0
M  V30 34 H -0.3259 -0.2887 0.4442 0
M  V30 35 C 0.1703 0.4697 0.0637 0
M  V30 36 C 0.3022 0.4224 0.2188 0
M  V30 37 C 0.5100 0.4302 0.1916 0
M  V30 38 O 0.5881 0.2530 0.2458 0
M  V30 39 C 0.5632 0.0639 0.3142 0
M  V30 40 C 0.6546 -0.0643 0.1765 0
M  V30 41 C 0.6090 -0.1740 0.0005 0
M  V30 42 H 0.0848 0.6262 0.1430 0
M  V30 43 H 0.2289 0.6494 0.0219 0
M  V30 44 H 0.2882 0.5890 0.3125 0
M  V30 45 H 0.6101 0.5766 0.2628 0
M  V30 46 H 0.6471 0.5376 0.1138 0
M  V30 47 H 0.7097 0.0707 0.4405 0
M  V30 48 H 0.8411 -0.0190 0.1585 0
M  V30 49 H 0.8067 -0.1354 0.2696 0
M  V30 50 H 0.7569 -0.1356 -0.1233 0
M  V30 51 H 0.7763 -0.2501 -0.0258 0
M  V30 52 C -0.1848 -0.0903 -0.1963 0
M  V30 53 C -0.0175 0.0370 -0.2510 0
M  V30 54 C 0.1570 -0.0827 -0.3146 0
M  V30 55 O 0.3083 -0.1875 -0.2256 0
M  V30 56 C 0.4535 -0.2816 -0.1056 0
M  V30 57 C 0.4334 -0.4899 -0.0565 0
M  V30 58 C 0.3495 -0.6299 0.0755 0
M  V30 59 H -0.2369 -0.1608 -0.3652 0
M  V30 60 H -0.2086 -0.2473 -0.3057 0
M  V30 61 H -0.0136 0.0272 -0.4265 0
M  V30 62 H 0.1648 -0.1747 -0.4890 0
M  V30 63 H 0.2446 -0.0575 -0.4881 0
M  V30 64 H 0.5553 -0.3178 -0.2585 0
M  V30 65 H 0.5870 -0.5864 -0.1019 0
M  V30 66 H 0.4703 -0.6048 -0.2088 0
M  V30 67 H 0.4795 -0.7610 0.1204 0
M  V30 68 H 0.3511 -0.8016 -0.0142 0
M  V30 69 C 0.0774 0.4020 -0.1128 0
M  V30 70 C -0.0290 0.2583 -0.2343 0
M  V30 71 C -0.1782 0.3622 -0.3446 0
M  V30 72 O -0.3735 0.4043 -0.3558 0
M  V30 73 C -0.5720 0.4131 -0.3662 0
M  V30 74 C -0.6913 0.3524 -0.5098 0
M  V30 75 C -0.8162 0.2061 -0.4419 0
M  V30 76 H 0.0376 0.5755 -0.1374 0
M  V30 77 H 0.1812 0.5166 -0.2401 0
M  V30 78 H 0.0591 0.3084 -0.3834 0
M  V30 79 H -0.1344 0.4037 -0.5368 0
M  V30 80 H -0.1494 0.5262 -0.4269 0
M  V30 81 H -0.5938 0.6000 -0.3955 0
M  V30 82 H -0.7708 0.4979 -0.5976 0
M  V30 83 H -0.7012 0.3638 -0.6979 0
M  V30 84 H -0.9088 0.1192 -0.5812 0
M  V30 85 H -1.0000 0.2325 -0.4655 0
M  V30 END ATOM
M  V30 BEGIN BOND
M  V30 1 1 1 2
M  V30 2 1 2 3
M  V30 3 1 3 4
M  V30 4 1 4 5
M  V30 5 1 5 6
M  V30 6 1 6 7
M  V30 7 1 1 8
M  V30 8 1 1 9
M  V30 9 1 2 10
M  V30 10 1 3 11
M  V30 11 1 3 12
M  V30 12 1 5 13
M  V30 13 1 6 14
M  V30 14 1 6 15
M  V30 15 1 7 16
M  V30 16 1 7 17
M  V30 17 1 18 19
M  V30 18 1 19 20
M  V30 19 1 20 21
M  V30 20 1 21 22
M  V30 21 1 22 23
M  V30 22 1 23 24
M  V30 23 1 18 25
M  V30 24 1 18 26
M  V30 25 1 19 27
M  V30 26 1 20 28
M  V30 27 1 20 29
M  V30 28 1 22 30
M  V30 29 1 23 31
M  V30 30 1 23 32
M  V30 31 1 24 33
M  V30 32 1 24 34
M  V30 33 1 35 36
M  V30 34 1 36 37
M  V30 35 1 37 38
M  V30 36 1 38 39
M  V30 37 1 39 40
M  V30 38 1 40 41
M  V30 39 1 35 42
M  V30 40 1 35 43
M  V30 41 1 36 44
M  V30 42 1 37 45
M  V30 43 1 37 46
M  V30 44 1 39 47
M  V30 45 1 40 48
M  V30 46 1 40 49
M  V30 47 1 41 50
M  V30 48 1 41 51
M  V30 49 1 52 53
M  V30 50 1 53 54
M  V30 51 1 54 55
M  V30 52 1 55 56
M  V30 53 1 56 57
M  V30 54 1 57 58
M  V30 55 1 52 59
M  V30 56 1 52 60
M  V30 57 1 53 61
M  V30 58 1 54 62
M  V30 59 1 54 63
M  V30 60 1 56 64
M  V30 61 1 57 65
M  V30 62 1 57 66
M  V30 63 1 58 67
M  V30 64 1 58 68
M  V30 65 1 69 70
M  V30 66 1 70 71
M  V30 67 1 71 72
M  V30 68 1 72 73
M  V30 69 1 73 74
M  V30 70 1 74 75
M  V30 71 1 69 76
M  V30 72 1 69 77
M  V30 73 1 70 78
M  V30 74 1 71 79
M  V30 75 1 71 80
M  V30 76 1 73 81
M  V30 77 1 74 82
M  V30 78 1 74 83
M  V30 79 1 75 84
M  V30 80 1 75 85
M  V30 81 1 35 69
M  V30 82 1 18 73
M  V30 83 1 22 52
M  V30 84 1 1 36
M  V30 85 1 53 70
M  V30 86 1 7 58
M  V30 87 1 19 75
M  V30 88 1 41 56
M  V30 89 1 5 24
M  V30 90 1 2 39
M  V30 END BOND
M  V30 END CTAB
M  END

$$$$
