
     RDKit          3D

  0  0  0  0  0  0  0  0  0  0999 V3000
M  V30 BEGIN CTAB
M  V30 COUNTS 85 90 0 0 0
M  V30 BEGIN ATOM
M  V30 1 C -0.2500 0.0797 0.3295 0
M  V30 2 C -0.2683 0.1428 0.0536 0
M  V30 3 C -0.1765 0.2573 -0.0575 0
M  V30 4 O -0.0751 0.3416 -0.1495 0
M  V30 5 C 0.0107 0.4046 -0.2309 0
M  V30 6 C 0.1080 0.2534 -0.4347 0
M  V30 7 C 0.0971 0.0297 -0.5600 0
M  V30 8 H -0.2391 0.0121 0.4056 0
M  V30 9 H -0.3044 0.0054 0.3866 0
M  V30 10 H -0.3626 0.1212 0.0912 0
M  V30 11 H -0.1857 0.2848 -0.1370 0
M  V30 12 H -0.2036 0.3376 -0.0563 0
M  V30 13 H 0.0650 0.4995 -0.2870 0
M  V30 14 H 0.1614 0.3263 -0.5209 0
M  V30 15 H 0.2067 0.2872 -0.5001 0
M  V30 16 H 0.1916 0.0252 -0.6359 0
M  V30 17 H 0.1402 0.0473 -0.6724 0
M  V30 18 C 0.5151 0.3511 0.2586 0
M  V30 19 C 0.4679 0.2337 0.3683 0
M  V30 20 C 0.3451 0.3116 0.5479 0
M  V30 21 O 0.1475 0.3491 0.6142 0
M  V30 22 C -0.0580 0.3768 0.6379 0
M  V30 23 C -0.1620 0.2155 0.7135 0
M  V30 24 C -0.2196 0.0859 0.5743 0
M  V30 25 H 0.4834 0.4613 0.2161 0
M  V30 26 H 0.5368 0.4724 0.2455 0
M  V30 27 H 0.5603 0.2517 0.4393 0
M  V30 28 H 0.3977 0.3794 0.6335 0
M  V30 29 H 0.4080 0.3155 0.6530 0
M  V30 30 H -0.0948 0.4018 0.7517 0
M  V30 31 H -0.2225 0.2031 0.8284 0
M  V30 32 H -0.1603 0.1972 0.8424 0
M  V30 33 H -0.2037 0.0223 0.6796 0
M  V30 34 H -0.2613 0.0062 0.6647 0
M  V30 35 C 0.0647 -0.7693 -0.1298 0
M  V30 36 C -0.0910 -0.7588 -0.1909 0
M  V30 37 C -0.1535 -0.5971 -0.3382 0
M  V30 38 O -0.0838 -0.4072 -0.4686 0
M  V30 39 C -0.0147 -0.1994 -0.5814 0
M  V30 40 C -0.1455 -0.1881 -0.6948 0
M  V30 41 C -0.2890 -0.0855 -0.6172 0
M  V30 42 H 0.1047 -0.8665 -0.1749 0
M  V30 43 H 0.0333 -0.8481 -0.1978 0
M  V30 44 H -0.1837 -0.8324 -0.1992 0
M  V30 45 H -0.2467 -0.6454 -0.3856 0
M  V30 46 H -0.2639 -0.6290 -0.3241 0
M  V30 47 H 0.0377 -0.2502 -0.6712 0
M  V30 48 H -0.1560 -0.2157 -0.8167 0
M  V30 49 H -0.1173 -0.2623 -0.7917 0
M  V30 50 H -0.3508 -0.1383 -0.7054 0
M  V30 51 H -0.3398 -0.0730 -0.7284 0
M  V30 52 C -0.3566 0.0394 -0.4298 0
M  V30 53 C -0.3491 0.1623 -0.1945 0
M  V30 54 C -0.3783 0.3655 -0.1819 0
M  V30 55 O -0.2529 0.4729 -0.1054 0
M  V30 56 C -0.1019 0.5213 -0.0196 0
M  V30 57 C -0.1273 0.5843 0.2443 0
M  V30 58 C -0.1246 0.5302 0.4869 0
M  V30 59 H -0.4639 0.0211 -0.4782 0
M  V30 60 H -0.4255 0.0670 -0.5182 0
M  V30 61 H -0.4600 0.1605 -0.2225 0
M  V30 62 H -0.4541 0.4486 -0.2431 0
M  V30 63 H -0.4898 0.4248 -0.1926 0
M  V30 64 H -0.1007 0.6426 -0.0337 0
M  V30 65 H -0.1220 0.6967 0.2854 0
M  V30 66 H -0.1856 0.6902 0.2661 0
M  V30 67 H -0.1433 0.6287 0.5588 0
M  V30 68 H -0.1920 0.5841 0.5741 0
M  V30 69 C 0.5789 0.2331 0.1978 0
M  V30 70 C 0.5143 0.0513 0.2318 0
M  V30 71 C 0.4631 -0.2162 0.1492 0
M  V30 72 O 0.3337 -0.4478 0.0663 0
M  V30 73 C 0.1976 -0.6756 -0.0095 0
M  V30 74 C 0.1073 -0.8591 0.0019 0
M  V30 75 C -0.0533 -0.8844 -0.0584 0
M  V30 76 H 0.6235 0.3123 0.1206 0
M  V30 77 H 0.6968 0.2654 0.1934 0
M  V30 78 H 0.6213 0.0246 0.2559 0
M  V30 79 H 0.5476 -0.2775 0.1971 0
M  V30 80 H 0.5608 -0.2577 0.1240 0
M  V30 81 H 0.2774 -0.7489 0.0107 0
M  V30 82 H 0.1503 -0.9767 0.0061 0
M  V30 83 H 0.1326 -0.9620 0.0687 0
M  V30 84 H -0.0986 -1.0000 -0.0448 0
M  V30 85 H -0.1256 -0.9452 0.0158 0
M  V30 END ATOM
M  V30 BEGIN BOND
M  V30 1 1 1 2
M  V30 2 1 2 3
M  V30 3 1 3 4
M  V30 4 1 4 5
M  V30 5 1 5 6
M  V30 6 1 6 7
M  V30 7 1 1 8
M  V30 8 1 1 9
M  V30 9 1 2 10
M  V30 10 1 3 11
M  V30 11 1 3 12
M  V30 12 1 5 13
M  V30 13 1 6 14
M  V30 14 1 6 15
M  V30 15 1 7 16
M  V30 16 1 7 17
M  V30 17 1 18 19
M  V30 18 1 19 20
M  V30 19 1 20 21
M  V30 20 1 21 22
M  V30 21 1 22 23
M  V30 22 1 23 24
M  V30 23 1 18 25
M  V30 24 1 18 26
M  V30 25 1 19 27
M  V30 26 1 20 28
M  V30 27 1 20 29
M  V30 28 1 22 30
M  V30 29 1 23 31
M  V30 30 1 23 32
M  V30 31 1 24 33
M  V30 32 1 24 34
M  V30 33 1 35 36
M  V30 34 1 36 37
M  V30 35 1 37 38
M  V30 36 1 38 39
M  V30 37 1 39 40
M  V30 38 1 40 41
M  V30 39 1 35 42
M  V30 40 1 35 43
M  V30 41 1 36 44
M  V30 42 1 37 45
M  V30 43 1 37 46
M  V30 44 1 39 47
M  V30 45 1 40 48
M  V30 46 1 40 49
M  V30 47 1 41 50
M  V30 48 1 41 51
M  V30 49 1 52 53
M  V30 50 1 53 54
M  V30 51 1 54 55
M  V30 52 1 55 56
M  V30 53 1 56 57
M  V30 54 1 57 58
M  V30 55 1 52 59
M  V30 56 1 52 60
M  V30 57 1 53 61
M  V30 58 1 54 62
M  V30 59 1 54 63
M  V30 60 1 56 64
M  V30 61 1 57 65
M  V30 62 1 57 66
M  V30 63 1 58 67
M  V30 64 1 58 68
M  V30 65 1 69 70
M  V30 66 1 70 71
M  V30 67 1 71 72
M  V30 68 1 72 73
M  V30 69 1 73 74
M  V30 70 1 74 75
M  V30 71 1 69 76
M  V30 72 1 69 77
M  V30 73 1 70 78
M  V30 74 1 71 79
M  V30 75 1 71 80
M  V30 76 1 73 81
M  V30 77 1 74 82
M  V30 78 1 74 83
M  V30 79 1 75 84
M  V30 80 1 75 85
M  V30 81 1 18 69
M  V30 82 1 35 73
M  V30 83 1 41 52
M  V30 84 1 22 58
M  V30 85 1 19 70
M  V30 86 1 1 24
M  V30 87 1 36 75
M  V30 88 1 7 39
M  V30 89 1 2 53
M  V30 90 1 5 56
M  V30 END BOND
M  V30 END CTAB
M  END

$$$$
