
     RDKit          3D

  0  0  0  0  0  0  0  0  0  0999 V3000
M  V30 BEGIN CTAB
M  V30 COUNTS 85 90 0 0 0
M  V30 BEGIN ATOM
M  V30 1 C -0.6113 0.2034 0.2186 0
M  V30 2 C -0.3710 0.1918 0.0698 0
M  V30 3 C -0.0979 0.3227 0.1632 0
M  V30 4 O 0.1397 0.4552 0.0959 0
M  V30 5 C 0.3575 0.5697 -0.0104 0
M  V30 6 C 0.6468 0.5660 -0.1098 0
M  V30 7 C 0.8393 0.4685 -0.2770 0
M  V30 8 H -0.7334 0.2647 0.2764 0
M  V30 9 H -0.7392 0.2886 0.2040 0
M  V30 10 H -0.4639 0.2319 0.1072 0
M  V30 11 H -0.0112 0.3437 0.2752 0
M  V30 12 H -0.0784 0.3653 0.3022 0
M  V30 13 H 0.4319 0.6888 0.0295 0
M  V30 14 H 0.7355 0.6811 -0.1082 0
M  V30 15 H 0.7588 0.6230 -0.0431 0
M  V30 16 H 0.9528 0.5580 -0.3175 0
M  V30 17 H 0.9818 0.5032 -0.2588 0
M  V30 18 C 0.1238 -0.4366 0.0742 0
M  V30 19 C 0.0029 -0.4023 -0.1455 0
M  V30 20 C -0.1341 -0.1923 -0.2792 0
M  V30 21 O -0.1462 -0.0031 -0.2004 0
M  V30 22 C -0.1413 0.1688 -0.0818 0
M  V30 23 C -0.0534 0.4607 -0.0963 0
M  V30 24 C 0.1437 0.6215 -0.0562 0
M  V30 25 H 0.2303 -0.3868 0.1518 0
M  V30 26 H 0.2547 -0.4535 0.1247 0
M  V30 27 H 0.0027 -0.4394 -0.2739 0
M  V30 28 H -0.2010 -0.0929 -0.3969 0
M  V30 29 H -0.2468 -0.1567 -0.4047 0
M  V30 30 H -0.2285 0.2583 -0.1424 0
M  V30 31 H -0.1181 0.5978 -0.0979 0
M  V30 32 H -0.0988 0.5806 -0.1755 0
M  V30 33 H 0.1394 0.7692 -0.0232 0
M  V30 34 H 0.1726 0.7674 -0.0977 0
M  V30 35 C -0.5846 0.0971 0.5982 0
M  V30 36 C -0.7092 0.1014 0.3730 0
M  V30 37 C -0.7798 0.0075 0.1699 0
M  V30 38 O -0.6104 0.0108 -0.0258 0
M  V30 39 C -0.3934 0.0452 -0.1916 0
M  V30 40 C -0.1705 -0.0184 -0.4718 0
M  V30 41 C 0.1303 -0.0538 -0.5823 0
M  V30 42 H -0.6147 0.1796 0.7255 0
M  V30 43 H -0.6457 0.2160 0.6717 0
M  V30 44 H -0.8491 0.1169 0.4486 0
M  V30 45 H -0.9158 -0.0654 0.2005 0
M  V30 46 H -0.9372 -0.0044 0.1541 0
M  V30 47 H -0.5182 0.0398 -0.2829 0
M  V30 48 H -0.2168 -0.0752 -0.6188 0
M  V30 49 H -0.2190 0.0051 -0.6230 0
M  V30 50 H 0.1554 -0.0359 -0.7339 0
M  V30 51 H 0.1543 -0.1141 -0.7255 0
M  V30 52 C -0.1658 -0.0789 0.0590 0
M  V30 53 C -0.0253 -0.2092 0.2129 0
M  V30 54 C 0.2159 -0.2556 -0.0212 0
M  V30 55 O 0.3367 -0.1700 -0.2671 0
M  V30 56 C 0.4160 -0.0529 -0.4982 0
M  V30 57 C 0.6890 0.0877 -0.5333 0
M  V30 58 C 0.8547 0.2816 -0.4474 0
M  V30 59 H -0.2794 -0.1815 0.0246 0
M  V30 60 H -0.2733 -0.1898 0.0976 0
M  V30 61 H -0.0294 -0.2978 0.3029 0
M  V30 62 H 0.3387 -0.3582 -0.0087 0
M  V30 63 H 0.3363 -0.3317 -0.0751 0
M  V30 64 H 0.4995 -0.0943 -0.6115 0
M  V30 65 H 0.7729 0.0931 -0.6551 0
M  V30 66 H 0.8137 0.0460 -0.6013 0
M  V30 67 H 0.9669 0.3296 -0.5301 0
M  V30 68 H 1.0000 0.2734 -0.4825 0
M  V30 69 C -0.3751 -0.0432 0.6533 0
M  V30 70 C -0.1709 -0.2101 0.5115 0
M  V30 71 C -0.1054 -0.4031 0.6147 0
M  V30 72 O -0.0008 -0.5079 0.4541 0
M  V30 73 C 0.0879 -0.5805 0.2446 0
M  V30 74 C 0.0934 -0.7476 0.0931 0
M  V30 75 C 0.0455 -0.6536 -0.0987 0
M  V30 76 H -0.3699 0.0194 0.7932 0
M  V30 77 H -0.4195 -0.0465 0.7997 0
M  V30 78 H -0.1790 -0.2311 0.6531 0
M  V30 79 H -0.1723 -0.4332 0.7478 0
M  V30 80 H -0.0933 -0.4475 0.7634 0
M  V30 81 H 0.1409 -0.6868 0.3374 0
M  V30 82 H 0.1438 -0.9014 0.0853 0
M  V30 83 H 0.0968 -0.8981 0.1424 0
M  V30 84 H 0.0875 -0.7729 -0.1810 0
M  V30 85 H 0.0079 -0.7859 -0.1617 0
M  V30 END ATOM
M  V30 BEGIN BOND
M  V30 1 1 1 2
M  V30 2 1 2 3
M  V30 3 1 3 4
M  V30 4 1 4 5
M  V30 5 1 5 6
M  V30 6 1 6 7
M  V30 7 1 1 8
M  V30 8 1 1 9
M  V30 9 1 2 10
M  V30 10 1 3 11
M  V30 11 1 3 12
M  V30 12 1 5 13
M  V30 13 1 6 14
M  V30 14 1 6 15
M  V30 15 1 7 16
M  V30 16 1 7 17
M  V30 17 1 18 19
M  V30 18 1 19 20
M  V30 19 1 20 21
M  V30 20 1 21 22
M  V30 21 1 22 23
M  V30 22 1 23 24
M  V30 23 1 18 25
M  V30 24 1 18 26
M  V30 25 1 19 27
M  V30 26 1 20 28
M  V30 27 1 20 29
M  V30 28 1 22 30
M  V30 29 1 23 31
M  V30 30 1 23 32
M  V30 31 1 24 33
M  V30 32 1 24 34
M  V30 33 1 35 36
M  V30 34 1 36 37
M  V30 35 1 37 38
M  V30 36 1 38 39
M  V30 37 1 39 40
M  V30 38 1 40 41
M  V30 39 1 35 42
M  V30 40 1 35 43
M  V30 41 1 36 44
M  V30 42 1 37 45
M  V30 43 1 37 46
M  V30 44 1 39 47
M  V30 45 1 40 48
M  V30 46 1 40 49
M  V30 47 1 41 50
M  V30 48 1 41 51
M  V30 49 1 52 53
M  V30 50 1 53 54
M  V30 51 1 54 55
M  V30 52 1 55 56
M  V30 53 1 56 57
M  V30 54 1 57 58
M  V30 55 1 52 59
M  V30 56 1 52 60
M  V30 57 1 53 61
M  V30 58 1 54 62
M  V30 59 1 54 63
M  V30 60 1 56 64
M  V30 61 1 57 65
M  V30 62 1 57 66
M  V30 63 1 58 67
M  V30 64 1 58 68
M  V30 65 1 69 70
M  V30 66 1 70 71
M  V30 67 1 71 72
M  V30 68 1 72 73
M  V30 69 1 73 74
M  V30 70 1 74 75
M  V30 71 1 69 76
M  V30 72 1 69 77
M  V30 73 1 70 78
M  V30 74 1 71 79
M  V30 75 1 71 80
M  V30 76 1 73 81
M  V30 77 1 74 82
M  V30 78 1 74 83
M  V30 79 1 75 84
M  V30 80 1 75 85
M  V30 81 1 35 69
M  V30 82 1 18 73
M  V30 83 1 22 52
M  V30 84 1 1 36
M  V30 85 1 53 70
M  V30 86 1 7 58
M  V30 87 1 19 75
M  V30 88 1 41 56
M  V30 89 1 5 24
M  V30 90 1 2 39
M  V30 END BOND
M  V30 END CTAB
M  END

$$$$
