
     RDKit          3D

  0  0  0  0  0  0  0  0  0  0999 V3000
M  V30 BEGIN CTAB
M  V30 COUNTS 85 90 0 0 0
M  V30 BEGIN ATOM
M  V30 1 C -0.6337 -0.3552 0.3455 0
M  V30 2 C -0.7634 -1.1354 1.5755 0
M  V30 3 C -0.8106 -1.2923 2.8265 0
M  V30 4 O -0.1121 -1.2972 3.5381 0
M  V30 5 C 0.6917 -1.2442 3.9991 0
M  V30 6 C 1.1972 0.0012 4.3141 0
M  V30 7 C 1.4124 1.3099 3.9296 0
M  V30 8 H -0.9391 -0.0010 0.6841 0
M  V30 9 H -1.2185 -0.1836 0.4177 0
M  V30 10 H -1.3105 -1.2349 1.8677 0
M  V30 11 H -1.1934 -1.5918 3.3358 0
M  V30 12 H -1.2877 -1.2315 3.3273 0
M  V30 13 H 0.8340 -1.4803 4.6241 0
M  V30 14 H 1.2312 0.0509 5.0000 0
M  V30 15 H 1.5838 -0.0618 4.8770 0
M  V30 16 H 1.8180 1.5347 4.4396 0
M  V30 17 H 1.4531 1.5975 4.5485 0
M  V30 18 C 0.5596 1.1861 -2.0253 0
M  V30 19 C -0.0804 0.1161 -0.9603 0
M  V30 20 C -0.2172 -0.9922 -0.6839 0
M  V30 21 O -0.3284 -1.5999 0.4051 0
M  V30 22 C -0.3954 -2.0358 1.5403 0
M  V30 23 C 0.0100 -2.6721 2.5827 0
M  V30 24 C 0.5701 -2.3660 3.5132 0
M  V30 25 H 0.4878 1.5164 -2.6158 0
M  V30 26 H 0.7376 1.2221 -2.6966 0
M  V30 27 H -0.1510 0.2825 -1.4745 0
M  V30 28 H -0.1225 -1.1994 -1.3436 0
M  V30 29 H -0.2904 -1.4699 -1.1666 0
M  V30 30 H -0.6567 -2.6310 1.6434 0
M  V30 31 H 0.0388 -3.3700 2.6503 0
M  V30 32 H -0.1642 -3.2486 2.9654 0
M  V30 33 H 0.7178 -2.9224 3.9083 0
M  V30 34 H 0.9648 -2.9393 3.6020 0
M  V30 35 C 2.7683 -1.8089 -0.7026 0
M  V30 36 C 2.2410 -0.9616 -0.7082 0
M  V30 37 C 2.7355 0.2850 -0.6862 0
M  V30 38 O 2.3032 1.4411 -0.7434 0
M  V30 39 C 1.6201 2.4765 -0.7978 0
M  V30 40 C 1.7712 2.8387 -1.8501 0
M  V30 41 C 1.2633 2.2232 -2.4628 0
M  V30 42 H 3.3921 -2.1332 -0.9138 0
M  V30 43 H 3.3818 -2.1252 -0.5087 0
M  V30 44 H 2.8693 -1.0127 -0.7726 0
M  V30 45 H 3.4132 0.3404 -0.8486 0
M  V30 46 H 3.3870 0.4683 -0.5055 0
M  V30 47 H 2.0195 3.0269 -0.7876 0
M  V30 48 H 1.9732 3.4807 -2.1061 0
M  V30 49 H 2.2676 3.2558 -2.1613 0
M  V30 50 H 1.3649 2.7311 -2.9940 0
M  V30 51 H 1.5749 2.4541 -3.1099 0
M  V30 52 C 2.0069 -2.1411 -0.8180 0
M  V30 53 C 0.9857 -1.5587 -0.8129 0
M  V30 54 C -0.7412 -1.4920 -1.0340 0
M  V30 55 O -2.0341 -1.1983 -1.7326 0
M  V30 56 C -3.2062 -0.7829 -2.4334 0
M  V30 57 C -3.8016 -0.7550 -3.2360 0
M  V30 58 C -3.3640 0.0150 -3.3363 0
M  V30 59 H 2.4245 -2.6120 -1.0866 0
M  V30 60 H 2.2590 -2.8192 -0.8596 0
M  V30 61 H 1.1072 -2.1029 -0.8349 0
M  V30 62 H -1.3625 -1.5654 -0.8076 0
M  V30 63 H -1.2336 -1.9230 -0.8269 0
M  V30 64 H -3.7513 -1.1700 -2.4224 0
M  V30 65 H -4.3183 -1.1939 -3.4979 0
M  V30 66 H -4.3166 -0.9255 -3.7422 0
M  V30 67 H -3.5623 -0.1053 -3.9675 0
M  V30 68 H -3.1847 -0.3294 -3.8793 0
M  V30 69 C -3.6987 0.1428 -2.6303 0
M  V30 70 C -3.0105 0.9005 -2.5965 0
M  V30 71 C -2.0476 1.8694 -1.8143 0
M  V30 72 O -0.7731 2.3461 -0.8997 0
M  V30 73 C 0.5539 2.6897 0.0111 0
M  V30 74 C 0.9951 2.8236 1.5588 0
M  V30 75 C 1.3240 2.3311 2.9431 0
M  V30 76 H -4.4116 0.1926 -2.6246 0
M  V30 77 H -4.3158 0.3468 -2.9519 0
M  V30 78 H -3.4430 1.2942 -2.9428 0
M  V30 79 H -2.3205 2.3814 -2.1675 0
M  V30 80 H -2.5160 2.3568 -1.8343 0
M  V30 81 H 0.5276 3.3413 0.0821 0
M  V30 82 H 1.2976 3.3922 1.7697 0
M  V30 83 H 0.9184 3.4322 1.8508 0
M  V30 84 H 1.7035 2.7512 3.3246 0
M  V30 85 H 1.3313 2.8255 3.4145 0
M  V30 END ATOM
M  V30 BEGIN BOND
M  V30 1 1 1 2
M  V30 2 1 2 3
M  V30 3 1 3 4
M  V30 4 1 4 5
M  V30 5 1 5 6
M  V30 6 1 6 7
M  V30 7 1 1 8
M  V30 8 1 1 9
M  V30 9 1 2 10
M  V30 10 1 3 11
M  V30 11 1 3 12
M  V30 12 1 5 13
M  V30 13 1 6 14
M  V30 14 1 6 15
M  V30 15 1 7 16
M  V30 16 1 7 17
M  V30 17 1 18 19
M  V30 18 1 19 20
M  V30 19 1 20 21
M  V30 20 1 21 22
M  V30 21 1 22 23
M  V30 22 1 23 24
M  V30 23 1 18 25
M  V30 24 1 18 26
M  V30 25 1 19 27
M  V30 26 1 20 28
M  V30 27 1 20 29
M  V30 28 1 22 30
M  V30 29 1 23 31
M  V30 30 1 23 32
M  V30 31 1 24 33
M  V30 32 1 24 34
M  V30 33 1 35 36
M  V30 34 1 36 37
M  V30 35 1 37 38
M  V30 36 1 38 39
M  V30 37 1 39 40
M  V30 38 1 40 41
M  V30 39 1 35 42
M  V30 40 1 35 43
M  V30 41 1 36 44
M  V30 42 1 37 45
M  V30 43 1 37 46
M  V30 44 1 39 47
M  V30 45 1 40 48
M  V30 46 1 40 49
M  V30 47 1 41 50
M  V30 48 1 41 51
M  V30 49 1 52 53
M  V30 50 1 53 54
M  V30 51 1 54 55
M  V30 52 1 55 56
M  V30 53 1 56 57
M  V30 54 1 57 58
M  V30 55 1 52 59
M  V30 56 1 52 60
M  V30 57 1 53 61
M  V30 58 1 54 62
M  V30 59 1 54 63
M  V30 60 1 56 64
M  V30 61 1 57 65
M  V30 62 1 57 66
M  V30 63 1 58 67
M  V30 64 1 58 68
M  V30 65 1 69 70
M  V30 66 1 70 71
M  V30 67 1 71 72
M  V30 68 1 72 73
M  V30 69 1 73 74
M  V30 70 1 74 75
M  V30 71 1 69 76
M  V30 72 1 69 77
M  V30 73 1 70 78
M  V30 74 1 71 79
M  V30 75 1 71 80
M  V30 76 1 73 81
M  V30 77 1 74 82
M  V30 78 1 74 83
M  V30 79 1 75 84
M  V30 80 1 75 85
M  V30 81 1 35 52
M  V30 82 1 18 41
M  V30 83 1 1 19
M  V30 84 1 2 22
M  V30 85 1 56 69
M  V30 86 1 5 24
M  V30 87 1 58 70
M  V30 88 1 36 53
M  V30 89 1 7 75
M  V30 90 1 39 73
M  V30 END BOND
M  V30 END CTAB
M  END

$$$$
