
     RDKit          3D

  0  0  0  0  0  0  0  0  0  0999 V3000
M  V30 BEGIN CTAB
M  V30 COUNTS 85 90 0 0 0
M  V30 BEGIN ATOM
M  V30 1 C -0.4922 -0.0724 0.5524 0
M  V30 2 C -0.5343 -0.0903 0.2831 0
M  V30 3 C -0.5442 0.1154 0.1456 0
M  V30 4 O -0.3720 0.1842 -0.0046 0
M  V30 5 C -0.1637 0.2099 -0.1395 0
M  V30 6 C -0.0390 0.4652 -0.1400 0
M  V30 7 C 0.1390 0.5113 -0.1027 0
M  V30 8 H -0.5897 -0.0470 0.6710 0
M  V30 9 H -0.6266 -0.0832 0.6229 0
M  V30 10 H -0.6792 -0.0994 0.3234 0
M  V30 11 H -0.6382 0.2296 0.1631 0
M  V30 12 H -0.6831 0.1703 0.1458 0
M  V30 13 H -0.2525 0.2969 -0.1910 0
M  V30 14 H -0.0212 0.6139 -0.1895 0
M  V30 15 H -0.0554 0.6214 -0.1255 0
M  V30 16 H 0.1941 0.6531 -0.0472 0
M  V30 17 H 0.2350 0.6420 -0.1076 0
M  V30 18 C 0.2089 -0.4034 0.6072 0
M  V30 19 C 0.2146 -0.2273 0.4932 0
M  V30 20 C 0.1326 -0.0234 0.5749 0
M  V30 21 O 0.2071 -0.0618 0.5198 0
M  V30 22 C 0.1917 -0.1535 0.4132 0
M  V30 23 C -0.0092 -0.1013 0.6424 0
M  V30 24 C -0.2800 -0.0740 0.6977 0
M  V30 25 H 0.2185 -0.4595 0.7542 0
M  V30 26 H 0.1825 -0.5156 0.7180 0
M  V30 27 H 0.2145 -0.2507 0.6260 0
M  V30 28 H 0.0436 0.0855 0.6353 0
M  V30 29 H 0.1142 0.1102 0.6517 0
M  V30 30 H 0.3329 -0.1384 0.4843 0
M  V30 31 H 0.0388 -0.1134 0.7899 0
M  V30 32 H 0.0108 -0.0451 0.7868 0
M  V30 33 H -0.3457 -0.1021 0.8369 0
M  V30 34 H -0.3356 -0.0243 0.8341 0
M  V30 35 C 0.1454 0.2704 -0.8487 0
M  V30 36 C -0.0023 0.3932 -0.7793 0
M  V30 37 C -0.0919 0.4060 -0.5639 0
M  V30 38 O 0.0216 0.3612 -0.3531 0
M  V30 39 C 0.1262 0.2848 -0.1269 0
M  V30 40 C 0.1247 0.0003 0.0117 0
M  V30 41 C -0.0171 -0.2933 0.0711 0
M  V30 42 H 0.1781 0.2730 -1.0000 0
M  V30 43 H 0.1121 0.2300 -0.9907 0
M  V30 44 H -0.1096 0.4188 -0.8756 0
M  V30 45 H -0.2042 0.4936 -0.5870 0
M  V30 46 H -0.2318 0.4163 -0.5972 0
M  V30 47 H 0.2327 0.3711 -0.0943 0
M  V30 48 H 0.2603 0.0120 0.0375 0
M  V30 49 H 0.2248 0.0683 0.0824 0
M  V30 50 H -0.0056 -0.4479 0.0483 0
M  V30 51 H 0.0268 -0.4377 0.1111 0
M  V30 52 C -0.2588 -0.4166 0.1058 0
M  V30 53 C -0.4592 -0.2944 0.1127 0
M  V30 54 C -0.4524 -0.3316 -0.1049 0
M  V30 55 O -0.2783 -0.2142 -0.1794 0
M  V30 56 C -0.0831 -0.0765 -0.1959 0
M  V30 57 C 0.1569 -0.2345 -0.1448 0
M  V30 58 C 0.2773 -0.2540 0.1140 0
M  V30 59 H -0.2869 -0.5743 0.0959 0
M  V30 60 H -0.3344 -0.5487 0.1470 0
M  V30 61 H -0.5906 -0.3727 0.1263 0
M  V30 62 H -0.5834 -0.3907 -0.1650 0
M  V30 63 H -0.5269 -0.4402 -0.1857 0
M  V30 64 H -0.1132 -0.1212 -0.3275 0
M  V30 65 H 0.1920 -0.3455 -0.2630 0
M  V30 66 H 0.2526 -0.3101 -0.2576 0
M  V30 67 H 0.4346 -0.3169 0.0845 0
M  V30 68 H 0.3905 -0.3671 0.0516 0
M  V30 69 C 0.2871 -0.4220 0.4465 0
M  V30 70 C 0.3299 -0.2508 0.2485 0
M  V30 71 C 0.4124 -0.1144 -0.0895 0
M  V30 72 O 0.3646 0.0434 -0.3933 0
M  V30 73 C 0.2939 0.2067 -0.6755 0
M  V30 74 C 0.2659 0.3966 -0.8050 0
M  V30 75 C 0.0984 0.4871 -0.8771 0
M  V30 76 H 0.2738 -0.5613 0.5032 0
M  V30 77 H 0.3652 -0.5363 0.5179 0
M  V30 78 H 0.4555 -0.3183 0.2900 0
M  V30 79 H 0.5690 -0.1240 -0.1053 0
M  V30 80 H 0.5336 -0.1336 -0.1744 0
M  V30 81 H 0.3923 0.1881 -0.7825 0
M  V30 82 H 0.3701 0.4435 -0.8553 0
M  V30 83 H 0.3336 0.5046 -0.8024 0
M  V30 84 H 0.0959 0.5754 -0.9983 0
M  V30 85 H 0.0147 0.5815 -0.9321 0
M  V30 END ATOM
M  V30 BEGIN BOND
M  V30 1 1 1 2
M  V30 2 1 2 3
M  V30 3 1 3 4
M  V30 4 1 4 5
M  V30 5 1 5 6
M  V30 6 1 6 7
M  V30 7 1 1 8
M  V30 8 1 1 9
M  V30 9 1 2 10
M  V30 10 1 3 11
M  V30 11 1 3 12
M  V30 12 1 5 13
M  V30 13 1 6 14
M  V30 14 1 6 15
M  V30 15 1 7 16
M  V30 16 1 7 17
M  V30 17 1 18 19
M  V30 18 1 19 20
M  V30 19 1 20 21
M  V30 20 1 21 22
M  V30 21 1 22 23
M  V30 22 1 23 24
M  V30 23 1 18 25
M  V30 24 1 18 26
M  V30 25 1 19 27
M  V30 26 1 20 28
M  V30 27 1 20 29
M  V30 28 1 22 30
M  V30 29 1 23 31
M  V30 30 1 23 32
M  V30 31 1 24 33
M  V30 32 1 24 34
M  V30 33 1 35 36
M  V30 34 1 36 37
M  V30 35 1 37 38
M  V30 36 1 38 39
M  V30 37 1 39 40
M  V30 38 1 40 41
M  V30 39 1 35 42
M  V30 40 1 35 43
M  V30 41 1 36 44
M  V30 42 1 37 45
M  V30 43 1 37 46
M  V30 44 1 39 47
M  V30 45 1 40 48
M  V30 46 1 40 49
M  V30 47 1 41 50
M  V30 48 1 41 51
M  V30 49 1 52 53
M  V30 50 1 53 54
M  V30 51 1 54 55
M  V30 52 1 55 56
M  V30 53 1 56 57
M  V30 54 1 57 58
M  V30 55 1 52 59
M  V30 56 1 52 60
M  V30 57 1 53 61
M  V30 58 1 54 62
M  V30 59 1 54 63
M  V30 60 1 56 64
M  V30 61 1 57 65
M  V30 62 1 57 66
M  V30 63 1 58 67
M  V30 64 1 58 68
M  V30 65 1 69 70
M  V30 66 1 70 71
M  V30 67 1 71 72
M  V30 68 1 72 73
M  V30 69 1 73 74
M  V30 70 1 74 75
M  V30 71 1 69 76
M  V30 72 1 69 77
M  V30 73 1 70 78
M  V30 74 1 71 79
M  V30 75 1 71 80
M  V30 76 1 73 81
M  V30 77 1 74 82
M  V30 78 1 74 83
M  V30 79 1 75 84
M  V30 80 1 75 85
M  V30 81 1 18 69
M  V30 82 1 35 73
M  V30 83 1 41 52
M  V30 84 1 22 58
M  V30 85 1 19 70
M  V30 86 1 1 24
M  V30 87 1 36 75
M  V30 88 1 7 39
M  V30 89 1 2 53
M  V30 90 1 5 56
M  V30 END BOND
M  V30 END CTAB
M  END

$$$$
