
     RDKit          3D

  0  0  0  0  0  0  0  0  0  0999 V3000
M  V30 BEGIN CTAB
M  V30 COUNTS 85 90 0 0 0
M  V30 BEGIN ATOM
M  V30 1 C 0.7437 -3.1011 -2.9406 0
M  V30 2 C 0.8300 -2.4426 -3.1706 0
M  V30 3 C 1.0305 -1.6259 -2.7618 0
M  V30 4 O 0.4825 -1.5575 -1.9332 0
M  V30 5 C -0.1693 -1.5989 -1.0896 0
M  V30 6 C 0.1616 -1.9257 0.2034 0
M  V30 7 C 0.1287 -2.0487 1.5089 0
M  V30 8 H 0.7940 -3.4189 -3.2219 0
M  V30 9 H 0.7258 -3.5025 -2.6114 0
M  V30 10 H 1.2303 -2.5575 -3.6498 0
M  V30 11 H 1.5591 -1.2567 -2.9053 0
M  V30 12 H 1.3351 -1.1991 -3.1522 0
M  V30 13 H -0.1710 -1.6336 -1.4353 0
M  V30 14 H 0.3014 -2.4631 0.2646 0
M  V30 15 H 0.6482 -2.1502 0.2762 0
M  V30 16 H 0.5476 -2.3774 1.7983 0
M  V30 17 H 0.2408 -2.6003 1.7465 0
M  V30 18 C -1.2924 2.0282 -0.6838 0
M  V30 19 C -0.2173 2.5053 -1.1296 0
M  V30 20 C 0.3903 3.2058 -1.4216 0
M  V30 21 O 1.0990 3.1833 -0.9151 0
M  V30 22 C 1.6904 3.0488 -0.2243 0
M  V30 23 C 1.9011 3.3268 0.8179 0
M  V30 24 C 1.6298 2.9814 1.8345 0
M  V30 25 H -1.6630 2.5055 -0.6535 0
M  V30 26 H -1.6968 2.3772 -0.9882 0
M  V30 27 H -0.4740 2.9368 -1.4547 0
M  V30 28 H 0.3553 3.5356 -1.9648 0
M  V30 29 H 0.4044 3.7881 -1.7061 0
M  V30 30 H 2.1431 3.2792 -0.5599 0
M  V30 31 H 2.0995 3.9305 0.8681 0
M  V30 32 H 2.3908 3.7350 0.8946 0
M  V30 33 H 1.7252 3.5102 2.1655 0
M  V30 34 H 2.0232 3.3182 2.2109 0
M  V30 35 C 0.5085 -3.5354 -3.0070 0
M  V30 36 C 0.1913 -2.9187 -3.4365 0
M  V30 37 C -0.6571 -2.5545 -3.4720 0
M  V30 38 O -0.9911 -2.0008 -2.6778 0
M  V30 39 C -1.1825 -1.4685 -1.7554 0
M  V30 40 C -2.1864 -1.0365 -1.3500 0
M  V30 41 C -2.5490 -0.6007 -0.4795 0
M  V30 42 H 0.8375 -4.0499 -2.8851 0
M  V30 43 H 0.4612 -4.1347 -2.9874 0
M  V30 44 H 0.2053 -3.2467 -4.0136 0
M  V30 45 H -0.8506 -2.6142 -4.0801 0
M  V30 46 H -0.9888 -2.8912 -3.9100 0
M  V30 47 H -1.5517 -1.4463 -2.1597 0
M  V30 48 H -2.7361 -1.1787 -1.5882 0
M  V30 49 H -2.6640 -0.8329 -1.6858 0
M  V30 50 H -3.1731 -0.5137 -0.4907 0
M  V30 51 H -3.1344 -0.8548 -0.4586 0
M  V30 52 C 0.7494 2.1542 -1.1084 0
M  V30 53 C 1.5886 2.3243 -0.4112 0
M  V30 54 C 1.9949 2.1088 0.5284 0
M  V30 55 O 1.5828 2.0982 1.4935 0
M  V30 56 C 1.0830 2.1551 2.4042 0
M  V30 57 C 0.2891 1.5189 3.3714 0
M  V30 58 C -0.2439 0.6650 4.1402 0
M  V30 59 H 0.5942 1.7777 -1.5640 0
M  V30 60 H 0.9204 1.7504 -1.6040 0
M  V30 61 H 2.0734 2.2631 -0.7764 0
M  V30 62 H 2.5770 2.2107 0.6758 0
M  V30 63 H 2.5833 1.9746 0.4427 0
M  V30 64 H 1.2583 2.4298 2.8865 0
M  V30 65 H -0.1223 1.7333 3.6598 0
M  V30 66 H 0.2294 1.7921 3.8421 0
M  V30 67 H -0.4366 0.6589 4.7051 0
M  V30 68 H -0.6270 0.8791 4.5660 0
M  V30 69 C -1.9226 1.1114 -0.0981 0
M  V30 70 C -2.0173 -0.0773 0.3243 0
M  V30 71 C -1.3519 -0.7706 1.2057 0
M  V30 72 O -0.8831 -1.2731 1.9785 0
M  V30 73 C -0.3061 -1.6833 2.5917 0
M  V30 74 C -0.3681 -1.3070 3.7769 0
M  V30 75 C -0.4038 -0.4053 4.3842 0
M  V30 76 H -2.4716 1.3380 -0.1312 0
M  V30 77 H -2.3286 1.3903 0.2093 0
M  V30 78 H -2.5041 -0.1160 0.6282 0
M  V30 79 H -0.8801 -0.8740 1.4854 0
M  V30 80 H -1.0285 -1.2360 1.3250 0
M  V30 81 H -0.2610 -2.1236 2.9972 0
M  V30 82 H -0.5669 -1.6661 4.2518 0
M  V30 83 H -0.2190 -1.6166 4.3024 0
M  V30 84 H -0.6968 -0.5096 4.9384 0
M  V30 85 H -0.3513 -0.5332 5.0000 0
M  V30 END ATOM
M  V30 BEGIN BOND
M  V30 1 1 1 2
M  V30 2 1 2 3
M  V30 3 1 3 4
M  V30 4 1 4 5
M  V30 5 1 5 6
M  V30 6 1 6 7
M  V30 7 1 1 8
M  V30 8 1 1 9
M  V30 9 1 2 10
M  V30 10 1 3 11
M  V30 11 1 3 12
M  V30 12 1 5 13
M  V30 13 1 6 14
M  V30 14 1 6 15
M  V30 15 1 7 16
M  V30 16 1 7 17
M  V30 17 1 18 19
M  V30 18 1 19 20
M  V30 19 1 20 21
M  V30 20 1 21 22
M  V30 21 1 22 23
M  V30 22 1 23 24
M  V30 23 1 18 25
M  V30 24 1 18 26
M  V30 25 1 19 27
M  V30 26 1 20 28
M  V30 27 1 20 29
M  V30 28 1 22 30
M  V30 29 1 23 31
M  V30 30 1 23 32
M  V30 31 1 24 33
M  V30 32 1 24 34
M  V30 33 1 35 36
M  V30 34 1 36 37
M  V30 35 1 37 38
M  V30 36 1 38 39
M  V30 37 1 39 40
M  V30 38 1 40 41
M  V30 39 1 35 42
M  V30 40 1 35 43
M  V30 41 1 36 44
M  V30 42 1 37 45
M  V30 43 1 37 46
M  V30 44 1 39 47
M  V30 45 1 40 48
M  V30 46 1 40 49
M  V30 47 1 41 50
M  V30 48 1 41 51
M  V30 49 1 52 53
M  V30 50 1 53 54
M  V30 51 1 54 55
M  V30 52 1 55 56
M  V30 53 1 56 57
M  V30 54 1 57 58
M  V30 55 1 52 59
M  V30 56 1 52 60
M  V30 57 1 53 61
M  V30 58 1 54 62
M  V30 59 1 54 63
M  V30 60 1 56 64
M  V30 61 1 57 65
M  V30 62 1 57 66
M  V30 63 1 58 67
M  V30 64 1 58 68
M  V30 65 1 69 70
M  V30 66 1 70 71
M  V30 67 1 71 72
M  V30 68 1 72 73
M  V30 69 1 73 74
M  V30 70 1 74 75
M  V30 71 1 69 76
M  V30 72 1 69 77
M  V30 73 1 70 78
M  V30 74 1 71 79
M  V30 75 1 71 80
M  V30 76 1 73 81
M  V30 77 1 74 82
M  V30 78 1 74 83
M  V30 79 1 75 84
M  V30 80 1 75 85
M  V30 81 1 1 35
M  V30 82 1 18 69
M  V30 83 1 19 52
M  V30 84 1 7 73
M  V30 85 1 22 53
M  V30 86 1 2 36
M  V30 87 1 58 75
M  V30 88 1 24 56
M  V30 89 1 41 70
M  V30 90 1 5 39
M  V30 END BOND
M  V30 END CTAB
M  END

$$$$
