
     RDKit          3D

  0  0  0  0  0  0  0  0  0  0999 V3000
M  V30 BEGIN CTAB
M  V30 COUNTS 85 90 0 0 0
M  V30 BEGIN ATOM
M  V30 1 C 1.6820 -0.7808 2.5796 0
M  V30 2 C 2.3488 -1.2359 1.7062 0
M  V30 3 C 2.9696 -0.5036 0.9809 0
M  V30 4 O 2.8683 0.0108 -0.0456 0
M  V30 5 C 2.5682 0.3626 -1.1359 0
M  V30 6 C 2.9284 -0.3454 -2.0286 0
M  V30 7 C 2.7181 -1.3317 -2.6018 0
M  V30 8 H 2.2597 -0.8301 3.4788 0
M  V30 9 H 2.1967 -0.0948 3.2217 0
M  V30 10 H 3.2282 -1.3853 2.2233 0
M  V30 11 H 3.7374 0.0995 1.4335 0
M  V30 12 H 4.0162 -0.6015 1.0991 0
M  V30 13 H 3.4363 0.9237 -1.1083 0
M  V30 14 H 3.9786 -0.2327 -2.1475 0
M  V30 15 H 3.4731 0.1145 -2.7919 0
M  V30 16 H 2.9442 -1.2335 -3.6397 0
M  V30 17 H 3.6519 -1.6432 -2.9871 0
M  V30 18 C -2.6151 3.7205 0.4507 0
M  V30 19 C -2.4265 3.8135 -0.6552 0
M  V30 20 C -1.6194 3.4019 -1.3457 0
M  V30 21 O -0.9627 2.5087 -1.3499 0
M  V30 22 C -0.4213 1.5100 -1.3801 0
M  V30 23 C 0.7362 1.6170 -1.5535 0
M  V30 24 C 1.8255 1.2577 -1.3745 0
M  V30 25 H -2.2098 4.5272 1.0434 0
M  V30 26 H -2.9415 4.5282 1.0263 0
M  V30 27 H -2.2252 4.8370 -0.7906 0
M  V30 28 H -1.1423 4.2754 -1.6784 0
M  V30 29 H -1.8469 3.7381 -2.3481 0
M  V30 30 H -0.6205 1.6396 -2.3952 0
M  V30 31 H 1.0689 2.5780 -1.6465 0
M  V30 32 H 0.8441 1.9866 -2.5639 0
M  V30 33 H 2.4269 2.1295 -1.1440 0
M  V30 34 H 2.3532 1.8621 -2.0489 0
M  V30 35 C -0.4564 -0.3815 2.7130 0
M  V30 36 C 0.5715 -0.8669 2.9326 0
M  V30 37 C 0.6609 -1.9892 3.2172 0
M  V30 38 O 1.3871 -2.4707 2.5254 0
M  V30 39 C 2.0868 -2.4017 1.6516 0
M  V30 40 C 1.7643 -3.2126 0.8895 0
M  V30 41 C 1.0542 -3.3497 -0.0374 0
M  V30 42 H -0.9676 -0.5979 3.6314 0
M  V30 43 H -0.4812 0.3256 3.5267 0
M  V30 44 H 0.6823 -0.4966 3.9210 0
M  V30 45 H 0.8346 -2.2693 4.2232 0
M  V30 46 H 0.2099 -2.7329 3.8168 0
M  V30 47 H 2.8767 -2.9629 2.1110 0
M  V30 48 H 1.7974 -4.1762 1.3480 0
M  V30 49 H 2.5534 -3.9256 0.9042 0
M  V30 50 H 1.2721 -4.3349 -0.2361 0
M  V30 51 H 0.5267 -4.2843 0.1470 0
M  V30 52 C -1.0581 0.5462 -1.0906 0
M  V30 53 C -1.3805 -0.2862 -0.2914 0
M  V30 54 C -1.2466 -1.4095 -0.7551 0
M  V30 55 O -0.4039 -2.1490 -0.9206 0
M  V30 56 C 0.5627 -2.8002 -0.9848 0
M  V30 57 C 1.2165 -2.8026 -1.9800 0
M  V30 58 C 2.0697 -2.2791 -2.5726 0
M  V30 59 H -1.8605 0.5045 -1.7702 0
M  V30 60 H -1.3739 0.2904 -2.0865 0
M  V30 61 H -2.2473 -0.5979 -0.6236 0
M  V30 62 H -1.9292 -1.8186 -1.5050 0
M  V30 63 H -2.0672 -2.1194 -0.7992 0
M  V30 64 H -0.0093 -3.6073 -1.2950 0
M  V30 65 H 1.3674 -3.7641 -2.3339 0
M  V30 66 H 0.7347 -3.3402 -2.7780 0
M  V30 67 H 2.7171 -3.0052 -2.9744 0
M  V30 68 H 1.9787 -2.5839 -3.5969 0
M  V30 69 C -1.3096 -0.2369 1.9306 0
M  V30 70 C -1.7448 0.0134 0.8451 0
M  V30 71 C -2.6627 0.7367 0.9875 0
M  V30 72 O -3.0007 1.7907 0.9355 0
M  V30 73 C -3.2797 2.8312 0.7093 0
M  V30 74 C -4.0128 3.2065 -0.0006 0
M  V30 75 C -3.5102 3.8337 -0.7931 0
M  V30 76 H -1.8521 0.0544 2.7121 0
M  V30 77 H -2.0657 -0.8887 2.4224 0
M  V30 78 H -2.5070 -0.6251 0.9601 0
M  V30 79 H -3.3859 0.6016 1.7083 0
M  V30 80 H -3.6735 0.2664 0.9186 0
M  V30 81 H -3.8225 3.0662 1.5821 0
M  V30 82 H -4.8270 3.6306 0.4871 0
M  V30 83 H -5.0000 3.0026 -0.2767 0
M  V30 84 H -4.1417 4.0503 -1.5965 0
M  V30 85 H -3.8761 4.7927 -0.9418 0
M  V30 END ATOM
M  V30 BEGIN BOND
M  V30 1 1 1 2
M  V30 2 1 2 3
M  V30 3 1 3 4
M  V30 4 1 4 5
M  V30 5 1 5 6
M  V30 6 1 6 7
M  V30 7 1 1 8
M  V30 8 1 1 9
M  V30 9 1 2 10
M  V30 10 1 3 11
M  V30 11 1 3 12
M  V30 12 1 5 13
M  V30 13 1 6 14
M  V30 14 1 6 15
M  V30 15 1 7 16
M  V30 16 1 7 17
M  V30 17 1 18 19
M  V30 18 1 19 20
M  V30 19 1 20 21
M  V30 20 1 21 22
M  V30 21 1 22 23
M  V30 22 1 23 24
M  V30 23 1 18 25
M  V30 24 1 18 26
M  V30 25 1 19 27
M  V30 26 1 20 28
M  V30 27 1 20 29
M  V30 28 1 22 30
M  V30 29 1 23 31
M  V30 30 1 23 32
M  V30 31 1 24 33
M  V30 32 1 24 34
M  V30 33 1 35 36
M  V30 34 1 36 37
M  V30 35 1 37 38
M  V30 36 1 38 39
M  V30 37 1 39 40
M  V30 38 1 40 41
M  V30 39 1 35 42
M  V30 40 1 35 43
M  V30 41 1 36 44
M  V30 42 1 37 45
M  V30 43 1 37 46
M  V30 44 1 39 47
M  V30 45 1 40 48
M  V30 46 1 40 49
M  V30 47 1 41 50
M  V30 48 1 41 51
M  V30 49 1 52 53
M  V30 50 1 53 54
M  V30 51 1 54 55
M  V30 52 1 55 56
M  V30 53 1 56 57
M  V30 54 1 57 58
M  V30 55 1 52 59
M  V30 56 1 52 60
M  V30 57 1 53 61
M  V30 58 1 54 62
M  V30 59 1 54 63
M  V30 60 1 56 64
M  V30 61 1 57 65
M  V30 62 1 57 66
M  V30 63 1 58 67
M  V30 64 1 58 68
M  V30 65 1 69 70
M  V30 66 1 70 71
M  V30 67 1 71 72
M  V30 68 1 72 73
M  V30 69 1 73 74
M  V30 70 1 74 75
M  V30 71 1 69 76
M  V30 72 1 69 77
M  V30 73 1 70 78
M  V30 74 1 71 79
M  V30 75 1 71 80
M  V30 76 1 73 81
M  V30 77 1 74 82
M  V30 78 1 74 83
M  V30 79 1 75 84
M  V30 80 1 75 85
M  V30 81 1 35 69
M  V30 82 1 18 73
M  V30 83 1 22 52
M  V30 84 1 1 36
M  V30 85 1 53 70
M  V30 86 1 7 58
M  V30 87 1 19 75
M  V30 88 1 41 56
M  V30 89 1 5 24
M  V30 90 1 2 39
M  V30 END BOND
M  V30 END CTAB
M  END

$$$$
