
     RDKit          3D

  0  0  0  0  0  0  0  0  0  0999 V3000
M  V30 BEGIN CTAB
M  V30 COUNTS 66 68 0 0 0
M  V30 BEGIN ATOM
M  V30 1 C 1.9465 -1.1599 -1.7122 0
M  V30 2 C 2.0123 -1.1268 -0.1989 0
M  V30 3 C 1.0697 -0.0657 0.3626 0
M  V30 4 O -0.2095 -0.3845 -0.0388 0
M  V30 5 C -1.1793 0.5027 0.4036 0
M  V30 6 C -1.7976 1.1979 -0.7573 0
M  V30 7 C -2.8642 2.1828 -0.3569 0
M  V30 8 H 2.6061 -1.9902 -2.0379 0
M  V30 9 H 2.3170 -0.1832 -2.0831 0
M  V30 10 H 1.6901 -2.1514 0.1264 0
M  V30 11 H 1.2212 -0.0034 1.4525 0
M  V30 12 H 1.3760 0.8887 -0.1497 0
M  V30 13 H -0.6372 1.2764 0.9959 0
M  V30 14 H -1.0516 1.7197 -1.3714 0
M  V30 15 H -2.3131 0.4911 -1.4649 0
M  V30 16 H -2.4120 2.9072 0.3666 0
M  V30 17 H -3.2268 2.7870 -1.2037 0
M  V30 18 C 2.0549 -1.2404 -0.8231 0
M  V30 19 C 2.1207 -1.2073 0.6902 0
M  V30 20 C 1.1781 -0.1462 1.2517 0
M  V30 21 O -0.1011 -0.4650 0.8503 0
M  V30 22 C -1.0709 0.4223 1.2927 0
M  V30 23 C -1.6891 1.1174 0.1319 0
M  V30 24 C -2.7558 2.1024 0.5322 0
M  V30 25 H 2.7145 -2.0707 -1.1488 0
M  V30 26 H 2.4254 -0.2637 -1.1940 0
M  V30 27 H 1.7985 -2.2319 1.0155 0
M  V30 28 H 1.3296 -0.0839 2.3416 0
M  V30 29 H 1.4845 0.8082 0.7394 0
M  V30 30 H -0.5288 1.1959 1.8850 0
M  V30 31 H -0.9432 1.6392 -0.4822 0
M  V30 32 H -2.2046 0.4106 -0.5758 0
M  V30 33 H -2.3035 2.8267 1.2557 0
M  V30 34 H -3.1184 2.7065 -0.3146 0
M  V30 35 C 1.3599 -0.0257 1.0802 0
M  V30 36 N 0.2048 -0.5932 0.4594 0
M  V30 37 C -1.0500 -0.0364 0.8767 0
M  V30 38 H 1.4115 -0.2136 2.1732 0
M  V30 39 H 2.2608 -0.4878 0.6473 0
M  V30 40 H 0.1648 -1.6163 0.6597 0
M  V30 41 H -1.2786 -0.3225 1.9222 0
M  V30 42 H -1.8323 -0.5305 0.2362 0
M  V30 43 C 0.9136 -0.1504 0.1003 0
M  V30 44 N -0.2415 -0.7179 -0.5205 0
M  V30 45 C -1.4963 -0.1611 -0.1033 0
M  V30 46 H 0.9652 -0.3383 1.1933 0
M  V30 47 H 1.8145 -0.6125 -0.3326 0
M  V30 48 H -0.2815 -1.7410 -0.3203 0
M  V30 49 H -1.7249 -0.4472 0.9423 0
M  V30 50 H -2.2787 -0.6552 -0.7437 0
M  V30 51 C 1.1161 0.1553 -0.9198 0
M  V30 52 N -0.0391 -0.4123 -1.5406 0
M  V30 53 C -1.2939 0.1446 -1.1233 0
M  V30 54 H 1.1677 -0.0327 0.1732 0
M  V30 55 H 2.0169 -0.3068 -1.3527 0
M  V30 56 H -0.0791 -1.4353 -1.3403 0
M  V30 57 H -1.5224 -0.1415 -0.0778 0
M  V30 58 H -2.0762 -0.3495 -1.7638 0
M  V30 59 C 1.5623 0.2800 0.0601 0
M  V30 60 N 0.4072 -0.2875 -0.5606 0
M  V30 61 C -0.8476 0.2693 -0.1434 0
M  V30 62 H 1.6139 0.0921 1.1531 0
M  V30 63 H 2.4632 -0.1821 -0.3728 0
M  V30 64 H 0.3672 -1.3106 -0.3604 0
M  V30 65 H -1.0761 -0.0168 0.9021 0
M  V30 66 H -1.6299 -0.2248 -0.7839 0
M  V30 END ATOM
M  V30 BEGIN BOND
M  V30 1 1 1 2
M  V30 2 1 2 3
M  V30 3 1 3 4
M  V30 4 1 4 5
M  V30 5 1 5 6
M  V30 6 1 6 7
M  V30 7 1 1 8
M  V30 8 1 1 9
M  V30 9 1 2 10
M  V30 10 1 3 11
M  V30 11 1 3 12
M  V30 12 1 5 13
M  V30 13 1 6 14
M  V30 14 1 6 15
M  V30 15 1 7 16
M  V30 16 1 7 17
M  V30 17 1 18 19
M  V30 18 1 19 20
M  V30 19 1 20 21
M  V30 20 1 21 22
M  V30 21 1 22 23
M  V30 22 1 23 24
M  V30 23 1 18 25
M  V30 24 1 18 26
M  V30 25 1 19 27
M  V30 26 1 20 28
M  V30 27 1 20 29
M  V30 28 1 22 30
M  V30 29 1 23 31
M  V30 30 1 23 32
M  V30 31 1 24 33
M  V30 32 1 24 34
M  V30 33 1 35 36
M  V30 34 1 36 37
M  V30 35 1 35 38
M  V30 36 1 35 39
M  V30 37 1 36 40
M  V30 38 1 37 41
M  V30 39 1 37 42
M  V30 40 1 43 44
M  V30 41 1 44 45
M  V30 42 1 43 46
M  V30 43 1 43 47
M  V30 44 1 44 48
M  V30 45 1 45 49
M  V30 46 1 45 50
M  V30 47 1 51 52
M  V30 48 1 52 53
M  V30 49 1 51 54
M  V30 50 1 51 55
M  V30 51 1 52 56
M  V30 52 1 53 57
M  V30 53 1 53 58
M  V30 54 1 59 60
M  V30 55 1 60 61
M  V30 56 1 59 62
M  V30 57 1 59 63
M  V30 58 1 60 64
M  V30 59 1 61 65
M  V30 60 1 61 66
M  V30 61 1 1 59
M  V30 62 1 2 51
M  V30 63 1 5 53
M  V30 64 1 7 43
M  V30 65 1 18 61
M  V30 66 1 19 45
M  V30 67 1 22 35
M  V30 68 1 24 37
M  V30 END BOND
M  V30 END CTAB
M  END

$$$$
