
     RDKit          3D

  0  0  0  0  0  0  0  0  0  0999 V3000
M  V30 BEGIN CTAB
M  V30 COUNTS 66 68 0 0 0
M  V30 BEGIN ATOM
M  V30 1 C -1.0888 -0.3771 -2.5348 0
M  V30 2 C 0.3476 -0.8541 -2.4649 0
M  V30 3 C 1.1419 -0.0384 -1.4484 0
M  V30 4 O 0.5402 -0.1978 -0.2188 0
M  V30 5 C 1.1621 0.4942 0.8098 0
M  V30 6 C 0.2487 1.5415 1.3406 0
M  V30 7 C 0.8548 2.3401 2.4645 0
M  V30 8 H -1.6109 -1.0531 -3.2426 0
M  V30 9 H -1.0755 0.6656 -2.9108 0
M  V30 10 H 0.2801 -1.9269 -2.1425 0
M  V30 11 H 2.1988 -0.3462 -1.5006 0
M  V30 12 H 1.0090 1.0311 -1.7735 0
M  V30 13 H 2.0266 1.0215 0.3432 0
M  V30 14 H -0.0835 2.2355 0.5572 0
M  V30 15 H -0.6992 1.1157 1.7722 0
M  V30 16 H 1.8176 2.7775 2.0977 0
M  V30 17 H 0.2293 3.1952 2.7663 0
M  V30 18 C 1.6791 -2.1758 -0.4469 0
M  V30 19 C 0.3819 -2.3006 -1.2196 0
M  V30 20 C -0.7604 -1.6112 -0.4784 0
M  V30 21 O -0.4296 -0.2806 -0.3399 0
M  V30 22 C -1.3861 0.4748 0.3219 0
M  V30 23 C -0.8321 0.9815 1.6062 0
M  V30 24 C -1.8152 1.8135 2.3868 0
M  V30 25 H 2.4655 -2.6431 -1.0743 0
M  V30 26 H 1.5509 -2.7217 0.5094 0
M  V30 27 H 0.5796 -1.7908 -2.1997 0
M  V30 28 H -1.7001 -1.8107 -1.0186 0
M  V30 29 H -0.7654 -2.0847 0.5429 0
M  V30 30 H -2.2091 -0.2325 0.5783 0
M  V30 31 H -0.4723 0.1682 2.2503 0
M  V30 32 H 0.0589 1.6534 1.4619 0
M  V30 33 H -2.7371 1.1994 2.5472 0
M  V30 34 H -1.4483 2.0771 3.3915 0
M  V30 35 C 1.2018 1.1240 0.2822 0
M  V30 36 N 1.3250 0.0405 1.2055 0
M  V30 37 C 0.0954 -0.6154 1.5470 0
M  V30 38 H 0.6222 1.9821 0.6827 0
M  V30 39 H 2.2061 1.5133 0.0531 0
M  V30 40 H 1.7438 0.3840 2.0971 0
M  V30 41 H -0.5434 0.0450 2.1659 0
M  V30 42 H 0.3830 -1.4824 2.2042 0
M  V30 43 C 1.4612 0.0055 -1.0236 0
M  V30 44 N 1.0048 -1.3477 -0.9743 0
M  V30 45 C 0.3522 -1.7294 0.2452 0
M  V30 46 H 2.2637 0.2282 -0.2895 0
M  V30 47 H 1.8931 0.2002 -2.0176 0
M  V30 48 H 1.8120 -1.9960 -1.1027 0
M  V30 49 H 1.0783 -1.7792 1.0804 0
M  V30 50 H -0.0126 -2.7812 0.0811 0
M  V30 51 C -0.3376 1.5760 -0.4416 0
M  V30 52 N -0.9617 1.2162 0.7924 0
M  V30 53 C -1.4082 -0.1447 0.8783 0
M  V30 54 H -1.0249 1.5359 -1.3126 0
M  V30 55 H 0.0108 2.6185 -0.3744 0
M  V30 56 H -1.7966 1.8206 0.9537 0
M  V30 57 H -2.2744 -0.3170 0.2095 0
M  V30 58 H -1.7897 -0.2760 1.9288 0
M  V30 59 C -0.0634 0.4685 -1.7202 0
M  V30 60 N -1.2887 -0.1828 -1.3792 0
M  V30 61 C -1.1662 -1.2697 -0.4506 0
M  V30 62 H 0.6463 -0.1849 -2.2699 0
M  V30 63 H -0.2834 1.3138 -2.3907 0
M  V30 64 H -1.7339 -0.5678 -2.2406 0
M  V30 65 H -0.6565 -2.1332 -0.9215 0
M  V30 66 H -2.2178 -1.6052 -0.2315 0
M  V30 END ATOM
M  V30 BEGIN BOND
M  V30 1 1 1 2
M  V30 2 1 2 3
M  V30 3 1 3 4
M  V30 4 1 4 5
M  V30 5 1 5 6
M  V30 6 1 6 7
M  V30 7 1 1 8
M  V30 8 1 1 9
M  V30 9 1 2 10
M  V30 10 1 3 11
M  V30 11 1 3 12
M  V30 12 1 5 13
M  V30 13 1 6 14
M  V30 14 1 6 15
M  V30 15 1 7 16
M  V30 16 1 7 17
M  V30 17 1 18 19
M  V30 18 1 19 20
M  V30 19 1 20 21
M  V30 20 1 21 22
M  V30 21 1 22 23
M  V30 22 1 23 24
M  V30 23 1 18 25
M  V30 24 1 18 26
M  V30 25 1 19 27
M  V30 26 1 20 28
M  V30 27 1 20 29
M  V30 28 1 22 30
M  V30 29 1 23 31
M  V30 30 1 23 32
M  V30 31 1 24 33
M  V30 32 1 24 34
M  V30 33 1 35 36
M  V30 34 1 36 37
M  V30 35 1 35 38
M  V30 36 1 35 39
M  V30 37 1 36 40
M  V30 38 1 37 41
M  V30 39 1 37 42
M  V30 40 1 43 44
M  V30 41 1 44 45
M  V30 42 1 43 46
M  V30 43 1 43 47
M  V30 44 1 44 48
M  V30 45 1 45 49
M  V30 46 1 45 50
M  V30 47 1 51 52
M  V30 48 1 52 53
M  V30 49 1 51 54
M  V30 50 1 51 55
M  V30 51 1 52 56
M  V30 52 1 53 57
M  V30 53 1 53 58
M  V30 54 1 59 60
M  V30 55 1 60 61
M  V30 56 1 59 62
M  V30 57 1 59 63
M  V30 58 1 60 64
M  V30 59 1 61 65
M  V30 60 1 61 66
M  V30 61 1 1 59
M  V30 62 1 2 43
M  V30 63 1 5 35
M  V30 64 1 7 51
M  V30 65 1 18 45
M  V30 66 1 19 61
M  V30 67 1 22 53
M  V30 68 1 24 37
M  V30 END BOND
M  V30 END CTAB
M  END

$$$$
