
     RDKit          3D

  0  0  0  0  0  0  0  0  0  0999 V3000
M  V30 BEGIN CTAB
M  V30 COUNTS 38 38 0 0 0
M  V30 BEGIN ATOM
M  V30 1 C 1.3203 2.7323 0.6157 0
M  V30 2 B -0.0469 3.5496 0.6858 0
M  V30 3 C -1.4560 2.7918 0.5935 0
M  V30 4 H 1.0619 1.6543 0.7411 0
M  V30 5 H -0.0906 4.7066 0.4027 0
M  V30 6 H -2.1924 3.2390 1.2759 0
M  V30 7 H -1.8094 2.7615 -0.4620 0
M  V30 8 C 1.8518 -2.5655 -0.5661 0
M  V30 9 B 0.4845 -1.7481 -0.4960 0
M  V30 10 C -0.9246 -2.5060 -0.5883 0
M  V30 11 H 1.5934 -3.6435 -0.4406 0
M  V30 12 H 0.4409 -0.5912 -0.7791 0
M  V30 13 H -1.6610 -2.0588 0.0941 0
M  V30 14 H -1.2779 -2.5362 -1.6438 0
M  V30 15 C 1.8366 -4.2012 -0.8474 0
M  V30 16 N 0.6815 -4.7688 -1.4681 0
M  V30 17 C -0.5734 -4.2119 -1.0509 0
M  V30 18 H 1.8882 -4.3892 0.2456 0
M  V30 19 H 2.7374 -4.6633 -1.2803 0
M  V30 20 H 0.6414 -5.7918 -1.2679 0
M  V30 21 H -0.8019 -4.4980 -0.0054 0
M  V30 22 H -1.3557 -4.7061 -1.6914 0
M  V30 23 C 1.4089 0.0552 0.1008 0
M  V30 24 N 0.2538 -0.5124 -0.5199 0
M  V30 25 C -1.0010 0.0445 -0.1027 0
M  V30 26 H 1.4605 -0.1327 1.1938 0
M  V30 27 H 2.3098 -0.4069 -0.3321 0
M  V30 28 H 0.2138 -1.5354 -0.3197 0
M  V30 29 H -1.2296 -0.2416 0.9428 0
M  V30 30 H -1.7833 -0.4496 -0.7432 0
M  V30 31 C -0.8026 4.6272 -0.5418 0
M  V30 32 H -1.1768 4.0333 -1.3984 0
M  V30 33 H -1.1781 5.6781 -0.5893 0
M  V30 34 H -1.1408 4.1001 0.3761 0
M  V30 35 C 0.3513 4.0637 2.4631 0
M  V30 36 H -0.0229 3.4698 1.6065 0
M  V30 37 H -0.0242 5.1146 2.4156 0
M  V30 38 H 0.0131 3.5366 3.3810 0
M  V30 END ATOM
M  V30 BEGIN BOND
M  V30 1 1 1 2
M  V30 2 1 2 3
M  V30 3 1 1 4
M  V30 4 1 2 5
M  V30 5 1 3 6
M  V30 6 1 3 7
M  V30 7 1 8 9
M  V30 8 1 9 10
M  V30 9 1 8 11
M  V30 10 1 9 12
M  V30 11 1 10 13
M  V30 12 1 10 14
M  V30 13 1 15 16
M  V30 14 1 16 17
M  V30 15 1 15 18
M  V30 16 1 15 19
M  V30 17 1 16 20
M  V30 18 1 17 21
M  V30 19 1 17 22
M  V30 20 1 23 24
M  V30 21 1 24 25
M  V30 22 1 23 26
M  V30 23 1 23 27
M  V30 24 1 24 28
M  V30 25 1 25 29
M  V30 26 1 25 30
M  V30 27 1 31 32
M  V30 28 1 31 33
M  V30 29 1 31 34
M  V30 30 1 35 36
M  V30 31 1 35 37
M  V30 32 1 35 38
M  V30 33 1 1 35
M  V30 34 1 1 31
M  V30 35 1 3 23
M  V30 36 1 8 25
M  V30 37 1 8 15
M  V30 38 1 10 17
M  V30 END BOND
M  V30 END CTAB
M  END

$$$$
