
     RDKit          3D

  0  0  0  0  0  0  0  0  0  0999 V3000
M  V30 BEGIN CTAB
M  V30 COUNTS 66 68 0 0 0
M  V30 BEGIN ATOM
M  V30 1 C 3.1509 0.4201 1.0297 0
M  V30 2 C 2.3454 0.9763 2.1861 0
M  V30 3 C 1.3983 2.0743 1.7099 0
M  V30 4 O 0.5484 1.5212 0.7767 0
M  V30 5 C -0.3756 2.4133 0.2533 0
M  V30 6 C -0.1247 2.6081 -1.2001 0
M  V30 7 C -1.0905 3.5682 -1.8431 0
M  V30 8 H 3.7641 -0.4071 1.4422 0
M  V30 9 H 3.7897 1.2400 0.6440 0
M  V30 10 H 1.7657 0.1006 2.5816 0
M  V30 11 H 0.9075 2.5204 2.5901 0
M  V30 12 H 2.0627 2.8189 1.1889 0
M  V30 13 H -0.1734 3.3894 0.7527 0
M  V30 14 H 0.8982 2.9537 -1.4000 0
M  V30 15 H -0.2308 1.6572 -1.7923 0
M  V30 16 H -1.0424 4.5351 -1.2815 0
M  V30 17 H -0.8233 3.8092 -2.8843 0
M  V30 18 C -3.1891 -0.4219 -0.9023 0
M  V30 19 C -3.1532 -1.0224 0.4883 0
M  V30 20 C -2.0902 -2.1137 0.5813 0
M  V30 21 O -0.8712 -1.5393 0.2928 0
M  V30 22 C 0.1965 -2.4231 0.3402 0
M  V30 23 C 0.7941 -2.5690 -1.0143 0
M  V30 24 C 1.9636 -3.5174 -1.0454 0
M  V30 25 H -3.9361 0.3977 -0.8720 0
M  V30 26 H -3.4996 -1.2228 -1.6030 0
M  V30 27 H -2.8978 -0.1653 1.1662 0
M  V30 28 H -2.1646 -2.5923 1.5712 0
M  V30 29 H -2.3479 -2.8348 -0.2439 0
M  V30 30 H -0.2389 -3.4127 0.6128 0
M  V30 31 H 0.0563 -2.8982 -1.7579 0
M  V30 32 H 1.2011 -1.6009 -1.4181 0
M  V30 33 H 1.6219 -4.5012 -0.6355 0
M  V30 34 H 2.3198 -3.7225 -2.0675 0
M  V30 35 C -0.9506 0.9471 5.2451 0
M  V30 36 N -1.2216 -0.3842 5.6880 0
M  V30 37 C -2.1096 -1.1388 4.8508 0
M  V30 38 H -1.8436 1.6066 5.2555 0
M  V30 39 H -0.2211 1.4087 5.9287 0
M  V30 40 H -1.6494 -0.3582 6.6391 0
M  V30 41 H -3.1415 -0.7406 4.9132 0
M  V30 42 H -2.1431 -2.1728 5.2936 0
M  V30 43 C -3.8173 3.6816 -0.8556 0
M  V30 44 N -4.9766 2.8472 -0.8182 0
M  V30 45 C -4.8719 1.6207 -1.5554 0
M  V30 46 H -3.5892 4.0760 -1.8680 0
M  V30 47 H -3.9903 4.5613 -0.2163 0
M  V30 48 H -5.7954 3.3651 -1.2050 0
M  V30 49 H -4.8567 1.8176 -2.6455 0
M  V30 50 H -5.8242 1.0575 -1.3498 0
M  V30 51 C 2.0707 1.1207 -4.7519 0
M  V30 52 N 1.1819 0.3700 -5.5815 0
M  V30 53 C 0.9060 -0.9645 -5.1324 0
M  V30 54 H 3.0996 0.7050 -4.7170 0
M  V30 55 H 2.1657 2.1388 -5.1606 0
M  V30 56 H 1.5802 0.2909 -6.5425 0
M  V30 57 H 1.8011 -1.6083 -5.2404 0
M  V30 58 H 0.1355 -1.3737 -5.8432 0
M  V30 59 C 4.8990 -1.5948 1.5140 0
M  V30 60 N 4.9188 -2.8921 0.9153 0
M  V30 61 C 3.7392 -3.6814 1.1261 0
M  V30 62 H 4.8717 -1.6206 2.6236 0
M  V30 63 H 5.8243 -1.0629 1.2429 0
M  V30 64 H 5.7226 -3.4407 1.2910 0
M  V30 65 H 3.6633 -3.9994 2.1846 0
M  V30 66 H 3.8877 -4.6207 0.5244 0
M  V30 END ATOM
M  V30 BEGIN BOND
M  V30 1 1 1 2
M  V30 2 1 2 3
M  V30 3 1 3 4
M  V30 4 1 4 5
M  V30 5 1 5 6
M  V30 6 1 6 7
M  V30 7 1 1 8
M  V30 8 1 1 9
M  V30 9 1 2 10
M  V30 10 1 3 11
M  V30 11 1 3 12
M  V30 12 1 5 13
M  V30 13 1 6 14
M  V30 14 1 6 15
M  V30 15 1 7 16
M  V30 16 1 7 17
M  V30 17 1 18 19
M  V30 18 1 19 20
M  V30 19 1 20 21
M  V30 20 1 21 22
M  V30 21 1 22 23
M  V30 22 1 23 24
M  V30 23 1 18 25
M  V30 24 1 18 26
M  V30 25 1 19 27
M  V30 26 1 20 28
M  V30 27 1 20 29
M  V30 28 1 22 30
M  V30 29 1 23 31
M  V30 30 1 23 32
M  V30 31 1 24 33
M  V30 32 1 24 34
M  V30 33 1 35 36
M  V30 34 1 36 37
M  V30 35 1 35 38
M  V30 36 1 35 39
M  V30 37 1 36 40
M  V30 38 1 37 41
M  V30 39 1 37 42
M  V30 40 1 43 44
M  V30 41 1 44 45
M  V30 42 1 43 46
M  V30 43 1 43 47
M  V30 44 1 44 48
M  V30 45 1 45 49
M  V30 46 1 45 50
M  V30 47 1 51 52
M  V30 48 1 52 53
M  V30 49 1 51 54
M  V30 50 1 51 55
M  V30 51 1 52 56
M  V30 52 1 53 57
M  V30 53 1 53 58
M  V30 54 1 59 60
M  V30 55 1 60 61
M  V30 56 1 59 62
M  V30 57 1 59 63
M  V30 58 1 60 64
M  V30 59 1 61 65
M  V30 60 1 61 66
M  V30 61 1 1 59
M  V30 62 1 5 43
M  V30 63 1 2 35
M  V30 64 1 7 51
M  V30 65 1 18 45
M  V30 66 1 22 61
M  V30 67 1 24 53
M  V30 68 1 19 37
M  V30 END BOND
M  V30 END CTAB
M  END

$$$$
