
     RDKit          3D

  0  0  0  0  0  0  0  0  0  0999 V3000
M  V30 BEGIN CTAB
M  V30 COUNTS 38 38 0 0 0
M  V30 BEGIN ATOM
M  V30 1 C -0.0952 -1.7145 1.0067 0
M  V30 2 B 0.7031 -0.7961 -0.0236 0
M  V30 3 C 0.1865 0.6811 -0.3695 0
M  V30 4 H -0.8256 -1.0550 1.5324 0
M  V30 5 H 1.4224 -1.2715 -0.8464 0
M  V30 6 H 1.0273 1.3814 -0.4722 0
M  V30 7 H -0.4688 0.6597 -1.2694 0
M  V30 8 C 0.8376 -0.8284 -0.3088 0
M  V30 9 B -0.5182 0.0051 -0.4053 0
M  V30 10 C -0.5369 1.5733 -0.0753 0
M  V30 11 H 1.6694 -0.0891 -0.2310 0
M  V30 12 H -1.5799 -0.5293 -0.3172 0
M  V30 13 H -1.2024 2.1152 -0.7619 0
M  V30 14 H -0.7947 1.7392 0.9951 0
M  V30 15 C 0.3093 -1.2928 0.4219 0
M  V30 16 N 1.1896 -0.2872 -0.0837 0
M  V30 17 C 0.5498 0.7935 -0.7776 0
M  V30 18 H -0.2238 -1.8541 -0.3739 0
M  V30 19 H 0.9001 -2.0371 0.9781 0
M  V30 20 H 1.8683 -0.7164 -0.7496 0
M  V30 21 H 0.1353 0.4485 -1.7452 0
M  V30 22 H 1.3684 1.5241 -1.0276 0
M  V30 23 C -0.3568 -0.9369 0.9051 0
M  V30 24 N -0.9941 0.1384 0.2127 0
M  V30 25 C -0.1104 1.1476 -0.2964 0
M  V30 26 H 0.1475 -0.6215 1.8426 0
M  V30 27 H -1.1205 -1.6729 1.2010 0
M  V30 28 H -1.6671 0.6172 0.8500 0
M  V30 29 H 0.3324 1.7360 0.5313 0
M  V30 30 H -0.7606 1.8595 -0.8768 0
M  V30 31 C 0.2156 0.9279 -0.5111 0
M  V30 32 H -0.1586 0.3340 -1.3676 0
M  V30 33 H -0.1598 1.9788 -0.5585 0
M  V30 34 H -0.1225 0.4008 0.4068 0
M  V30 35 C -0.0196 -1.0721 0.6377 0
M  V30 36 H -0.3938 -1.6660 -0.2188 0
M  V30 37 H -0.3951 -0.0212 0.5903 0
M  V30 38 H -0.3578 -1.5992 1.5556 0
M  V30 END ATOM
M  V30 BEGIN BOND
M  V30 1 1 1 2
M  V30 2 1 2 3
M  V30 3 1 1 4
M  V30 4 1 2 5
M  V30 5 1 3 6
M  V30 6 1 3 7
M  V30 7 1 8 9
M  V30 8 1 9 10
M  V30 9 1 8 11
M  V30 10 1 9 12
M  V30 11 1 10 13
M  V30 12 1 10 14
M  V30 13 1 15 16
M  V30 14 1 16 17
M  V30 15 1 15 18
M  V30 16 1 15 19
M  V30 17 1 16 20
M  V30 18 1 17 21
M  V30 19 1 17 22
M  V30 20 1 23 24
M  V30 21 1 24 25
M  V30 22 1 23 26
M  V30 23 1 23 27
M  V30 24 1 24 28
M  V30 25 1 25 29
M  V30 26 1 25 30
M  V30 27 1 31 32
M  V30 28 1 31 33
M  V30 29 1 31 34
M  V30 30 1 35 36
M  V30 31 1 35 37
M  V30 32 1 35 38
M  V30 33 1 1 35
M  V30 34 1 3 15
M  V30 35 1 1 23
M  V30 36 1 8 17
M  V30 37 1 8 31
M  V30 38 1 10 25
M  V30 END BOND
M  V30 END CTAB
M  END

$$$$
