
     RDKit          3D

  0  0  0  0  0  0  0  0  0  0999 V3000
M  V30 BEGIN CTAB
M  V30 COUNTS 66 68 0 0 0
M  V30 BEGIN ATOM
M  V30 1 C -1.1439 -0.6087 -2.3542 0
M  V30 2 C -1.7236 0.6055 -1.6576 0
M  V30 3 C -1.5188 0.5148 -0.1478 0
M  V30 4 O -0.1630 0.4476 0.0894 0
M  V30 5 C 0.1732 0.3608 1.4322 0
M  V30 6 C 0.8236 -0.9483 1.7081 0
M  V30 7 C 1.2189 -1.1196 3.1512 0
M  V30 8 H -1.2759 -0.4400 -3.4427 0
M  V30 9 H -1.7170 -1.4939 -2.0125 0
M  V30 10 H -1.1580 1.4779 -2.0799 0
M  V30 11 H -2.0404 1.3608 0.3284 0
M  V30 12 H -1.9804 -0.4694 0.1447 0
M  V30 13 H -0.7926 0.3688 1.9893 0
M  V30 14 H 0.1882 -1.7949 1.4161 0
M  V30 15 H 1.7795 -1.0905 1.1317 0
M  V30 16 H 0.3050 -0.9707 3.7800 0
M  V30 17 H 1.5798 -2.1356 3.3772 0
M  V30 18 C 1.4030 -2.2890 -0.0923 0
M  V30 19 C 1.7903 -1.3482 1.0304 0
M  V30 20 C 1.4645 0.0973 0.6644 0
M  V30 21 O 0.1074 0.1785 0.4390 0
M  V30 22 C -0.3343 1.4471 0.0939 0
M  V30 23 C -0.8670 1.4378 -1.2950 0
M  V30 24 C -1.3673 2.7851 -1.7453 0
M  V30 25 H 1.6115 -3.3160 0.2716 0
M  V30 26 H 2.0327 -2.0379 -0.9694 0
M  V30 27 H 1.1764 -1.6797 1.9094 0
M  V30 28 H 1.8518 0.7560 1.4586 0
M  V30 29 H 1.9984 0.2725 -0.3111 0
M  V30 30 H 0.5730 2.0953 0.0908 0
M  V30 31 H -0.1240 1.0798 -2.0200 0
M  V30 32 H -1.7488 0.7500 -1.4194 0
M  V30 33 H -0.5324 3.5211 -1.6270 0
M  V30 34 H -1.6392 2.8046 -2.8126 0
M  V30 35 C -0.6903 0.6993 1.2588 0
M  V30 36 N 0.7368 0.7546 1.3041 0
M  V30 37 C 1.4118 -0.3595 0.7026 0
M  V30 38 H -1.1191 -0.1368 1.8500 0
M  V30 39 H -1.0971 1.6241 1.6969 0
M  V30 40 H 1.0556 0.8034 2.2962 0
M  V30 41 H 1.2721 -1.2769 1.3078 0
M  V30 42 H 2.5091 -0.1146 0.7498 0
M  V30 43 C -0.5780 -1.4514 0.4650 0
M  V30 44 N 0.8474 -1.3811 0.5358 0
M  V30 45 C 1.4684 -0.5431 -0.4495 0
M  V30 46 H -0.9513 -1.9273 -0.4660 0
M  V30 47 H -0.9461 -2.0736 1.2956 0
M  V30 48 H 1.2527 -2.3357 0.4218 0
M  V30 49 H 1.3845 -0.9939 -1.4580 0
M  V30 50 H 2.5652 -0.5355 -0.1976 0
M  V30 51 C -1.4767 0.4756 0.4181 0
M  V30 52 N -0.8760 1.3272 -0.5595 0
M  V30 53 C 0.5539 1.4241 -0.4909 0
M  V30 54 H -1.3509 0.8404 1.4591 0
M  V30 55 H -2.5621 0.4350 0.2370 0
M  V30 56 H -1.2512 2.2956 -0.4606 0
M  V30 57 H 0.8670 1.9808 0.4142 0
M  V30 58 H 0.8606 2.0547 -1.3710 0
M  V30 59 C -1.3646 -0.6703 -0.5848 0
M  V30 60 N -0.2725 -0.7937 -1.4980 0
M  V30 61 C 0.6897 0.2695 -1.4485 0
M  V30 62 H -2.0193 0.2015 -0.7942 0
M  V30 63 H -2.0049 -1.5619 -0.6720 0
M  V30 64 H -0.6342 -0.8310 -2.4758 0
M  V30 65 H 0.2583 1.2087 -1.8475 0
M  V30 66 H 1.5106 -0.0272 -2.1587 0
M  V30 END ATOM
M  V30 BEGIN BOND
M  V30 1 1 1 2
M  V30 2 1 2 3
M  V30 3 1 3 4
M  V30 4 1 4 5
M  V30 5 1 5 6
M  V30 6 1 6 7
M  V30 7 1 1 8
M  V30 8 1 1 9
M  V30 9 1 2 10
M  V30 10 1 3 11
M  V30 11 1 3 12
M  V30 12 1 5 13
M  V30 13 1 6 14
M  V30 14 1 6 15
M  V30 15 1 7 16
M  V30 16 1 7 17
M  V30 17 1 18 19
M  V30 18 1 19 20
M  V30 19 1 20 21
M  V30 20 1 21 22
M  V30 21 1 22 23
M  V30 22 1 23 24
M  V30 23 1 18 25
M  V30 24 1 18 26
M  V30 25 1 19 27
M  V30 26 1 20 28
M  V30 27 1 20 29
M  V30 28 1 22 30
M  V30 29 1 23 31
M  V30 30 1 23 32
M  V30 31 1 24 33
M  V30 32 1 24 34
M  V30 33 1 35 36
M  V30 34 1 36 37
M  V30 35 1 35 38
M  V30 36 1 35 39
M  V30 37 1 36 40
M  V30 38 1 37 41
M  V30 39 1 37 42
M  V30 40 1 43 44
M  V30 41 1 44 45
M  V30 42 1 43 46
M  V30 43 1 43 47
M  V30 44 1 44 48
M  V30 45 1 45 49
M  V30 46 1 45 50
M  V30 47 1 51 52
M  V30 48 1 52 53
M  V30 49 1 51 54
M  V30 50 1 51 55
M  V30 51 1 52 56
M  V30 52 1 53 57
M  V30 53 1 53 58
M  V30 54 1 59 60
M  V30 55 1 60 61
M  V30 56 1 59 62
M  V30 57 1 59 63
M  V30 58 1 60 64
M  V30 59 1 61 65
M  V30 60 1 61 66
M  V30 61 1 1 59
M  V30 62 1 7 43
M  V30 63 1 5 35
M  V30 64 1 2 51
M  V30 65 1 18 45
M  V30 66 1 24 61
M  V30 67 1 22 53
M  V30 68 1 19 37
M  V30 END BOND
M  V30 END CTAB
M  END

$$$$
