
     RDKit          3D

  0  0  0  0  0  0  0  0  0  0999 V3000
M  V30 BEGIN CTAB
M  V30 COUNTS 66 68 0 0 0
M  V30 BEGIN ATOM
M  V30 1 C 0.7645 -2.1517 -1.5216 0
M  V30 2 C 1.9256 -1.4987 -0.7998 0
M  V30 3 C 1.6284 -0.0298 -0.5104 0
M  V30 4 O 0.5016 0.0233 0.2811 0
M  V30 5 C 0.1116 1.3090 0.6253 0
M  V30 6 C -1.2147 1.6141 0.0246 0
M  V30 7 C -1.7082 2.9985 0.3533 0
M  V30 8 H 1.0292 -3.2224 -1.6395 0
M  V30 9 H 0.6613 -1.6526 -2.5061 0
M  V30 10 H 2.0312 -2.0750 0.1573 0
M  V30 11 H 2.5311 0.4323 -0.0790 0
M  V30 12 H 1.3794 0.4146 -1.5143 0
M  V30 13 H 0.8516 1.9908 0.1449 0
M  V30 14 H -1.2115 1.4933 -1.0668 0
M  V30 15 H -2.0275 0.9272 0.3903 0
M  V30 16 H -0.9274 3.7306 0.0262 0
M  V30 17 H -2.6243 3.2668 -0.1966 0
M  V30 18 C 2.2876 -0.3775 1.4790 0
M  V30 19 C 1.8469 -1.6281 0.7460 0
M  V30 20 C 0.3434 -1.6031 0.4845 0
M  V30 21 O 0.0688 -0.4936 -0.2853 0
M  V30 22 C -1.2729 -0.3426 -0.6026 0
M  V30 23 C -1.8063 0.8952 0.0268 0
M  V30 24 C -3.2638 1.1293 -0.2716 0
M  V30 25 H 3.3908 -0.4415 1.5757 0
M  V30 26 H 1.7962 -0.3833 2.4726 0
M  V30 27 H 2.4151 -1.6108 -0.2216 0
M  V30 28 H 0.0479 -2.5689 0.0437 0
M  V30 29 H -0.1208 -1.4557 1.4994 0
M  V30 30 H -1.7975 -1.2031 -0.1256 0
M  V30 31 H -1.6670 0.8978 1.1160 0
M  V30 32 H -1.2881 1.8264 -0.3343 0
M  V30 33 H -3.8332 0.2217 0.0522 0
M  V30 34 H -3.6865 1.9715 0.2990 0
M  V30 35 C -0.3536 0.6919 -1.3846 0
M  V30 36 N -1.4666 0.4886 -0.5119 0
M  V30 37 C -1.4004 -0.6930 0.2992 0
M  V30 38 H -0.2612 -0.0857 -2.1716 0
M  V30 39 H -0.4852 1.6487 -1.9136 0
M  V30 40 H -2.3449 0.4244 -1.0713 0
M  V30 41 H -1.5207 -1.6028 -0.3213 0
M  V30 42 H -2.2991 -0.6512 0.9752 0
M  V30 43 C 1.5427 0.5502 -0.4334 0
M  V30 44 N 1.6814 -0.5871 0.4205 0
M  V30 45 C 0.6325 -0.7606 1.3840 0
M  V30 46 H 1.6052 1.5183 0.1065 0
M  V30 47 H 2.3684 0.5521 -1.1618 0
M  V30 48 H 2.5756 -0.5197 0.9537 0
M  V30 49 H 0.6804 0.0257 2.1628 0
M  V30 50 H 0.8526 -1.7339 1.9043 0
M  V30 51 C 0.4643 1.5053 -0.2541 0
M  V30 52 N 0.1970 1.2367 1.1237 0
M  V30 53 C -0.7699 0.2056 1.3698 0
M  V30 54 H -0.4096 1.9160 -0.8018 0
M  V30 55 H 1.2546 2.2690 -0.3217 0
M  V30 56 H -0.1560 2.1014 1.5885 0
M  V30 57 H -1.7845 0.5403 1.0766 0
M  V30 58 H -0.7935 0.0682 2.4865 0
M  V30 59 C 0.8169 -0.4638 -1.4234 0
M  V30 60 N -0.0960 -1.4787 -1.0011 0
M  V30 61 C -0.2270 -1.6313 0.4195 0
M  V30 62 H 1.8713 -0.6751 -1.1471 0
M  V30 63 H 0.7955 -0.3997 -2.5224 0
M  V30 64 H 0.2059 -2.4029 -1.3794 0
M  V30 65 H 0.6964 -2.0612 0.8553 0
M  V30 66 H -1.0350 -2.3997 0.5717 0
M  V30 END ATOM
M  V30 BEGIN BOND
M  V30 1 1 1 2
M  V30 2 1 2 3
M  V30 3 1 3 4
M  V30 4 1 4 5
M  V30 5 1 5 6
M  V30 6 1 6 7
M  V30 7 1 1 8
M  V30 8 1 1 9
M  V30 9 1 2 10
M  V30 10 1 3 11
M  V30 11 1 3 12
M  V30 12 1 5 13
M  V30 13 1 6 14
M  V30 14 1 6 15
M  V30 15 1 7 16
M  V30 16 1 7 17
M  V30 17 1 18 19
M  V30 18 1 19 20
M  V30 19 1 20 21
M  V30 20 1 21 22
M  V30 21 1 22 23
M  V30 22 1 23 24
M  V30 23 1 18 25
M  V30 24 1 18 26
M  V30 25 1 19 27
M  V30 26 1 20 28
M  V30 27 1 20 29
M  V30 28 1 22 30
M  V30 29 1 23 31
M  V30 30 1 23 32
M  V30 31 1 24 33
M  V30 32 1 24 34
M  V30 33 1 35 36
M  V30 34 1 36 37
M  V30 35 1 35 38
M  V30 36 1 35 39
M  V30 37 1 36 40
M  V30 38 1 37 41
M  V30 39 1 37 42
M  V30 40 1 43 44
M  V30 41 1 44 45
M  V30 42 1 43 46
M  V30 43 1 43 47
M  V30 44 1 44 48
M  V30 45 1 45 49
M  V30 46 1 45 50
M  V30 47 1 51 52
M  V30 48 1 52 53
M  V30 49 1 51 54
M  V30 50 1 51 55
M  V30 51 1 52 56
M  V30 52 1 53 57
M  V30 53 1 53 58
M  V30 54 1 59 60
M  V30 55 1 60 61
M  V30 56 1 59 62
M  V30 57 1 59 63
M  V30 58 1 60 64
M  V30 59 1 61 65
M  V30 60 1 61 66
M  V30 61 1 1 59
M  V30 62 1 2 43
M  V30 63 1 7 35
M  V30 64 1 5 51
M  V30 65 1 18 45
M  V30 66 1 19 61
M  V30 67 1 24 53
M  V30 68 1 22 37
M  V30 END BOND
M  V30 END CTAB
M  END

$$$$
