
     RDKit          3D

  0  0  0  0  0  0  0  0  0  0999 V3000
M  V30 BEGIN CTAB
M  V30 COUNTS 66 68 0 0 0
M  V30 BEGIN ATOM
M  V30 1 C 4.3592 -1.2002 -1.2677 0
M  V30 2 C 4.4250 -1.1671 0.2456 0
M  V30 3 C 3.4825 -0.1060 0.8072 0
M  V30 4 O 2.2033 -0.4247 0.4057 0
M  V30 5 C 1.2335 0.4625 0.8481 0
M  V30 6 C 0.6152 1.1577 -0.3127 0
M  V30 7 C -0.4514 2.1426 0.0876 0
M  V30 8 H 5.0189 -2.0304 -1.5934 0
M  V30 9 H 4.7298 -0.2235 -1.6386 0
M  V30 10 H 4.1029 -2.1917 0.5710 0
M  V30 11 H 3.6340 -0.0437 1.8970 0
M  V30 12 H 3.7888 0.8484 0.2948 0
M  V30 13 H 1.7756 1.2361 1.4405 0
M  V30 14 H 1.3611 1.6794 -0.9268 0
M  V30 15 H 0.0997 0.4509 -1.0204 0
M  V30 16 H 0.0008 2.8670 0.8111 0
M  V30 17 H -0.8140 2.7468 -0.7591 0
M  V30 18 C -0.3579 -1.2002 -1.2677 0
M  V30 19 C -0.2921 -1.1671 0.2456 0
M  V30 20 C -1.2346 -0.1060 0.8072 0
M  V30 21 O -2.5138 -0.4247 0.4057 0
M  V30 22 C -3.4837 0.4625 0.8481 0
M  V30 23 C -4.1019 1.1577 -0.3127 0
M  V30 24 C -5.1686 2.1426 0.0876 0
M  V30 25 H 0.3018 -2.0304 -1.5934 0
M  V30 26 H 0.0127 -0.2235 -1.6386 0
M  V30 27 H -0.6142 -2.1917 0.5710 0
M  V30 28 H -1.0832 -0.0437 1.8970 0
M  V30 29 H -0.9283 0.8484 0.2948 0
M  V30 30 H -2.9415 1.2361 1.4405 0
M  V30 31 H -3.3560 1.6794 -0.9268 0
M  V30 32 H -4.6174 0.4509 -1.0204 0
M  V30 33 H -4.7163 2.8670 0.8111 0
M  V30 34 H -5.5312 2.7468 -0.7591 0
M  V30 35 C 1.2380 -3.6442 -3.7343 0
M  V30 36 N 0.0829 -4.2118 -4.3551 0
M  V30 37 C -1.1720 -3.6549 -3.9379 0
M  V30 38 H 1.2896 -3.8322 -2.6413 0
M  V30 39 H 2.1388 -4.1063 -4.1672 0
M  V30 40 H 0.0428 -5.2348 -4.1548 0
M  V30 41 H -1.4005 -3.9410 -2.8923 0
M  V30 42 H -1.9543 -4.1490 -4.5783 0
M  V30 43 C 1.2380 -2.5208 5.0802 0
M  V30 44 N 0.0829 -3.0883 4.4594 0
M  V30 45 C -1.1720 -2.5315 4.8767 0
M  V30 46 H 1.2896 -2.7087 6.1732 0
M  V30 47 H 2.1388 -2.9829 4.6473 0
M  V30 48 H 0.0428 -4.1114 4.6597 0
M  V30 49 H -1.4005 -2.8176 5.9222 0
M  V30 50 H -1.9543 -3.0256 4.2362 0
M  V30 51 C -2.5783 3.2121 -0.5125 0
M  V30 52 N -3.7334 2.6446 -1.1333 0
M  V30 53 C -4.9882 3.2014 -0.7161 0
M  V30 54 H -2.5267 3.0242 0.5804 0
M  V30 55 H -1.6774 2.7500 -0.9454 0
M  V30 56 H -3.7734 1.6215 -0.9331 0
M  V30 57 H -5.2168 2.9153 0.3295 0
M  V30 58 H -5.7705 2.7073 -1.3565 0
M  V30 59 C 5.0542 3.2121 -0.5125 0
M  V30 60 N 3.8991 2.6446 -1.1333 0
M  V30 61 C 2.6443 3.2014 -0.7161 0
M  V30 62 H 5.1058 3.0242 0.5804 0
M  V30 63 H 5.9551 2.7500 -0.9454 0
M  V30 64 H 3.8591 1.6215 -0.9331 0
M  V30 65 H 2.4157 2.9153 0.3295 0
M  V30 66 H 1.8620 2.7073 -1.3565 0
M  V30 END ATOM
M  V30 BEGIN BOND
M  V30 1 1 1 2
M  V30 2 1 2 3
M  V30 3 1 3 4
M  V30 4 1 4 5
M  V30 5 1 5 6
M  V30 6 1 6 7
M  V30 7 1 1 8
M  V30 8 1 1 9
M  V30 9 1 2 10
M  V30 10 1 3 11
M  V30 11 1 3 12
M  V30 12 1 5 13
M  V30 13 1 6 14
M  V30 14 1 6 15
M  V30 15 1 7 16
M  V30 16 1 7 17
M  V30 17 1 18 19
M  V30 18 1 19 20
M  V30 19 1 20 21
M  V30 20 1 21 22
M  V30 21 1 22 23
M  V30 22 1 23 24
M  V30 23 1 18 25
M  V30 24 1 18 26
M  V30 25 1 19 27
M  V30 26 1 20 28
M  V30 27 1 20 29
M  V30 28 1 22 30
M  V30 29 1 23 31
M  V30 30 1 23 32
M  V30 31 1 24 33
M  V30 32 1 24 34
M  V30 33 1 35 36
M  V30 34 1 36 37
M  V30 35 1 35 38
M  V30 36 1 35 39
M  V30 37 1 36 40
M  V30 38 1 37 41
M  V30 39 1 37 42
M  V30 40 1 43 44
M  V30 41 1 44 45
M  V30 42 1 43 46
M  V30 43 1 43 47
M  V30 44 1 44 48
M  V30 45 1 45 49
M  V30 46 1 45 50
M  V30 47 1 51 52
M  V30 48 1 52 53
M  V30 49 1 51 54
M  V30 50 1 51 55
M  V30 51 1 52 56
M  V30 52 1 53 57
M  V30 53 1 53 58
M  V30 54 1 59 60
M  V30 55 1 60 61
M  V30 56 1 59 62
M  V30 57 1 59 63
M  V30 58 1 60 64
M  V30 59 1 61 65
M  V30 60 1 61 66
M  V30 61 1 1 43
M  V30 62 1 2 35
M  V30 63 1 5 59
M  V30 64 1 7 61
M  V30 65 1 18 51
M  V30 66 1 19 53
M  V30 67 1 22 45
M  V30 68 1 24 37
M  V30 END BOND
M  V30 END CTAB
M  END

$$$$
