
     RDKit          3D

  0  0  0  0  0  0  0  0  0  0999 V3000
M  V30 BEGIN CTAB
M  V30 COUNTS 66 68 0 0 0
M  V30 BEGIN ATOM
M  V30 1 C -0.2221 -2.3388 -2.0497 0
M  V30 2 C -0.1563 -2.3057 -0.5364 0
M  V30 3 C -1.0989 -1.2446 0.0251 0
M  V30 4 O -2.3781 -1.5634 -0.3763 0
M  V30 5 C -3.3479 -0.6762 0.0661 0
M  V30 6 C -3.9661 0.0190 -1.0948 0
M  V30 7 C -5.0328 1.0039 -0.6944 0
M  V30 8 H 0.4375 -3.1691 -2.3754 0
M  V30 9 H 0.1484 -1.3621 -2.4206 0
M  V30 10 H -0.4785 -3.3303 -0.2111 0
M  V30 11 H -0.9474 -1.1823 1.1150 0
M  V30 12 H -0.7925 -0.2902 -0.4873 0
M  V30 13 H -2.8058 0.0975 0.6584 0
M  V30 14 H -3.2202 0.5408 -1.7089 0
M  V30 15 H -4.4817 -0.6878 -1.8024 0
M  V30 16 H -4.5805 1.7283 0.0291 0
M  V30 17 H -5.3954 1.6081 -1.5412 0
M  V30 18 C 4.2235 -0.0617 -0.4854 0
M  V30 19 C 4.2893 -0.0285 1.0278 0
M  V30 20 C 3.3468 1.0325 1.5894 0
M  V30 21 O 2.0676 0.7138 1.1879 0
M  V30 22 C 1.0977 1.6010 1.6303 0
M  V30 23 C 0.4795 2.2962 0.4695 0
M  V30 24 C -0.5872 3.2811 0.8698 0
M  V30 25 H 4.8832 -0.8919 -0.8111 0
M  V30 26 H 4.5940 0.9151 -0.8563 0
M  V30 27 H 3.9671 -1.0531 1.3532 0
M  V30 28 H 3.4982 1.0948 2.6792 0
M  V30 29 H 3.6531 1.9870 1.0770 0
M  V30 30 H 1.6398 2.3746 2.2227 0
M  V30 31 H 1.2254 2.8180 -0.1446 0
M  V30 32 H -0.0360 1.5894 -0.2382 0
M  V30 33 H -0.1349 4.0055 1.5933 0
M  V30 34 H -0.9498 3.8853 0.0231 0
M  V30 35 C 6.2380 2.6261 1.8393 0
M  V30 36 N 5.0829 2.0586 1.2185 0
M  V30 37 C 3.8280 2.6154 1.6357 0
M  V30 38 H 6.2896 2.4382 2.9323 0
M  V30 39 H 7.1388 2.1640 1.4064 0
M  V30 40 H 5.0428 1.0355 1.4188 0
M  V30 41 H 3.5995 2.3293 2.6813 0
M  V30 42 H 3.0457 2.1213 0.9953 0
M  V30 43 C 2.4218 -1.3125 -1.2792 0
M  V30 44 N 1.2667 -1.8801 -1.9000 0
M  V30 45 C 0.0119 -1.3232 -1.4828 0
M  V30 46 H 2.4734 -1.5005 -0.1863 0
M  V30 47 H 3.3227 -1.7746 -1.7121 0
M  V30 48 H 1.2267 -2.9031 -1.6998 0
M  V30 49 H -0.2167 -1.6093 -0.4372 0
M  V30 50 H -0.7705 -1.8173 -2.1233 0
M  V30 51 C -3.7620 -2.4963 -1.6792 0
M  V30 52 N -4.9171 -3.0638 -2.3000 0
M  V30 53 C -6.1719 -2.5070 -1.8828 0
M  V30 54 H -3.7104 -2.6842 -0.5862 0
M  V30 55 H -2.8611 -2.9584 -2.1121 0
M  V30 56 H -4.9571 -4.0869 -2.0997 0
M  V30 57 H -6.4005 -2.7930 -0.8372 0
M  V30 58 H -6.9543 -3.0011 -2.5232 0
M  V30 59 C 0.0541 1.4422 1.4397 0
M  V30 60 N -1.1010 0.8746 0.8189 0
M  V30 61 C -2.3558 1.4314 1.2361 0
M  V30 62 H 0.1057 1.2542 2.5327 0
M  V30 63 H 0.9550 0.9800 1.0068 0
M  V30 64 H -1.1410 -0.1485 1.0192 0
M  V30 65 H -2.5844 1.1454 2.2817 0
M  V30 66 H -3.1381 0.9373 0.5957 0
M  V30 END ATOM
M  V30 BEGIN BOND
M  V30 1 1 1 2
M  V30 2 1 2 3
M  V30 3 1 3 4
M  V30 4 1 4 5
M  V30 5 1 5 6
M  V30 6 1 6 7
M  V30 7 1 1 8
M  V30 8 1 1 9
M  V30 9 1 2 10
M  V30 10 1 3 11
M  V30 11 1 3 12
M  V30 12 1 5 13
M  V30 13 1 6 14
M  V30 14 1 6 15
M  V30 15 1 7 16
M  V30 16 1 7 17
M  V30 17 1 18 19
M  V30 18 1 19 20
M  V30 19 1 20 21
M  V30 20 1 21 22
M  V30 21 1 22 23
M  V30 22 1 23 24
M  V30 23 1 18 25
M  V30 24 1 18 26
M  V30 25 1 19 27
M  V30 26 1 20 28
M  V30 27 1 20 29
M  V30 28 1 22 30
M  V30 29 1 23 31
M  V30 30 1 23 32
M  V30 31 1 24 33
M  V30 32 1 24 34
M  V30 33 1 35 36
M  V30 34 1 36 37
M  V30 35 1 35 38
M  V30 36 1 35 39
M  V30 37 1 36 40
M  V30 38 1 37 41
M  V30 39 1 37 42
M  V30 40 1 43 44
M  V30 41 1 44 45
M  V30 42 1 43 46
M  V30 43 1 43 47
M  V30 44 1 44 48
M  V30 45 1 45 49
M  V30 46 1 45 50
M  V30 47 1 51 52
M  V30 48 1 52 53
M  V30 49 1 51 54
M  V30 50 1 51 55
M  V30 51 1 52 56
M  V30 52 1 53 57
M  V30 53 1 53 58
M  V30 54 1 59 60
M  V30 55 1 60 61
M  V30 56 1 59 62
M  V30 57 1 59 63
M  V30 58 1 60 64
M  V30 59 1 61 65
M  V30 60 1 61 66
M  V30 61 1 1 59
M  V30 62 1 2 51
M  V30 63 1 5 53
M  V30 64 1 7 43
M  V30 65 1 18 61
M  V30 66 1 19 45
M  V30 67 1 22 35
M  V30 68 1 24 37
M  V30 END BOND
M  V30 END CTAB
M  END

$$$$
