
     RDKit          3D

  0  0  0  0  0  0  0  0  0  0999 V3000
M  V30 BEGIN CTAB
M  V30 COUNTS 38 38 0 0 0
M  V30 BEGIN ATOM
M  V30 1 C 1.5317 -0.7440 -1.2201 0
M  V30 2 B 2.5712 0.0819 -0.3372 0
M  V30 3 C 2.2812 0.3641 1.2135 0
M  V30 4 H 0.8111 -1.2203 -0.5140 0
M  V30 5 H 3.3454 0.8367 -0.8387 0
M  V30 6 H 3.2015 0.2882 1.8095 0
M  V30 7 H 1.7670 1.3439 1.3377 0
M  V30 8 C -2.6983 0.9602 -0.0033 0
M  V30 9 B -2.5136 -0.5854 -0.3484 0
M  V30 10 C -1.1425 -1.3401 -0.0033 0
M  V30 11 H -1.8592 1.2450 0.6745 0
M  V30 12 H -3.1654 -1.1115 -1.1963 0
M  V30 13 H -1.3315 -2.3616 0.3556 0
M  V30 14 H -0.4553 -1.3112 -0.8788 0
M  V30 15 C 1.2023 -2.0197 4.9985 0
M  V30 16 N -0.0037 -2.7236 5.3017 0
M  V30 17 C -1.2163 -2.0205 4.9949 0
M  V30 18 H 1.3436 -1.1024 5.6078 0
M  V30 19 H 2.0613 -2.6712 5.2222 0
M  V30 20 H -0.0327 -2.9495 6.3197 0
M  V30 21 H -1.3586 -1.1640 5.6830 0
M  V30 22 H -2.0520 -2.7421 5.2124 0
M  V30 23 C 1.2023 -2.0195 -5.0051 0
M  V30 24 N -0.0047 -1.6797 -5.6903 0
M  V30 25 C -1.2163 -2.0206 -5.0014 0
M  V30 26 H 1.3455 -3.1131 -4.8784 0
M  V30 27 H 2.0604 -1.6650 -5.5971 0
M  V30 28 H -0.0334 -2.1644 -6.6136 0
M  V30 29 H -1.3567 -3.1192 -4.9739 0
M  V30 30 H -2.0531 -1.6113 -5.6328 0
M  V30 31 C 4.6124 4.8100 -0.0033 0
M  V30 32 H 4.2382 4.2161 -0.8598 0
M  V30 33 H 4.2370 5.8609 -0.0507 0
M  V30 34 H 4.2742 4.2830 0.9146 0
M  V30 35 C -4.6264 4.8100 -0.0033 0
M  V30 36 H -5.0006 4.2161 -0.8598 0
M  V30 37 H -5.0018 5.8609 -0.0507 0
M  V30 38 H -4.9645 4.2830 0.9146 0
M  V30 END ATOM
M  V30 BEGIN BOND
M  V30 1 1 1 2
M  V30 2 1 2 3
M  V30 3 1 1 4
M  V30 4 1 2 5
M  V30 5 1 3 6
M  V30 6 1 3 7
M  V30 7 1 8 9
M  V30 8 1 9 10
M  V30 9 1 8 11
M  V30 10 1 9 12
M  V30 11 1 10 13
M  V30 12 1 10 14
M  V30 13 1 15 16
M  V30 14 1 16 17
M  V30 15 1 15 18
M  V30 16 1 15 19
M  V30 17 1 16 20
M  V30 18 1 17 21
M  V30 19 1 17 22
M  V30 20 1 23 24
M  V30 21 1 24 25
M  V30 22 1 23 26
M  V30 23 1 23 27
M  V30 24 1 24 28
M  V30 25 1 25 29
M  V30 26 1 25 30
M  V30 27 1 31 32
M  V30 28 1 31 33
M  V30 29 1 31 34
M  V30 30 1 35 36
M  V30 31 1 35 37
M  V30 32 1 35 38
M  V30 33 1 1 23
M  V30 34 1 1 15
M  V30 35 1 3 31
M  V30 36 1 8 35
M  V30 37 1 10 25
M  V30 38 1 8 17
M  V30 END BOND
M  V30 END CTAB
M  END

$$$$
