
     RDKit          3D

  0  0  0  0  0  0  0  0  0  0999 V3000
M  V30 BEGIN CTAB
M  V30 COUNTS 66 68 0 0 0
M  V30 BEGIN ATOM
M  V30 1 C 2.4724 -1.2002 -1.2677 0
M  V30 2 C 2.5382 -1.1671 0.2456 0
M  V30 3 C 1.5957 -0.1060 0.8072 0
M  V30 4 O 0.3165 -0.4247 0.4057 0
M  V30 5 C -0.6534 0.4625 0.8481 0
M  V30 6 C -1.2716 1.1577 -0.3127 0
M  V30 7 C -2.3383 2.1426 0.0876 0
M  V30 8 H 3.1321 -2.0304 -1.5934 0
M  V30 9 H 2.8429 -0.2235 -1.6386 0
M  V30 10 H 2.2161 -2.1917 0.5710 0
M  V30 11 H 1.7471 -0.0437 1.8970 0
M  V30 12 H 1.9020 0.8484 0.2948 0
M  V30 13 H -0.1112 1.2361 1.4405 0
M  V30 14 H -0.5257 1.6794 -0.9268 0
M  V30 15 H -1.7871 0.4509 -1.0204 0
M  V30 16 H -1.8860 2.8670 0.8111 0
M  V30 17 H -2.7009 2.7468 -0.7591 0
M  V30 18 C 1.5290 -1.2002 -1.2677 0
M  V30 19 C 1.5948 -1.1671 0.2456 0
M  V30 20 C 0.6522 -0.1060 0.8072 0
M  V30 21 O -0.6270 -0.4247 0.4057 0
M  V30 22 C -1.5968 0.4625 0.8481 0
M  V30 23 C -2.2150 1.1577 -0.3127 0
M  V30 24 C -3.2817 2.1426 0.0876 0
M  V30 25 H 2.1886 -2.0304 -1.5934 0
M  V30 26 H 1.8995 -0.2235 -1.6386 0
M  V30 27 H 1.2726 -2.1917 0.5710 0
M  V30 28 H 0.8037 -0.0437 1.8970 0
M  V30 29 H 0.9586 0.8484 0.2948 0
M  V30 30 H -1.0547 1.2361 1.4405 0
M  V30 31 H -1.4691 1.6794 -0.9268 0
M  V30 32 H -2.7306 0.4509 -1.0204 0
M  V30 33 H -2.8294 2.8670 0.8111 0
M  V30 34 H -3.6443 2.7468 -0.7591 0
M  V30 35 C 1.2380 -0.6770 -0.6827 0
M  V30 36 N 0.0829 -1.2445 -1.3035 0
M  V30 37 C -1.1720 -0.6877 -0.8863 0
M  V30 38 H 1.2896 -0.8649 0.4103 0
M  V30 39 H 2.1388 -1.1391 -1.1156 0
M  V30 40 H 0.0428 -2.2676 -1.1032 0
M  V30 41 H -1.4005 -0.9738 0.1593 0
M  V30 42 H -1.9543 -1.1818 -1.5267 0
M  V30 43 C 1.2380 -0.4523 1.0802 0
M  V30 44 N 0.0829 -1.0199 0.4594 0
M  V30 45 C -1.1720 -0.4630 0.8767 0
M  V30 46 H 1.2896 -0.6402 2.1732 0
M  V30 47 H 2.1388 -0.9144 0.6473 0
M  V30 48 H 0.0428 -2.0429 0.6597 0
M  V30 49 H -1.4005 -0.7491 1.9222 0
M  V30 50 H -1.9543 -0.9571 0.2362 0
M  V30 51 C 0.4747 0.6943 -0.0383 0
M  V30 52 N -0.6804 0.1267 -0.6591 0
M  V30 53 C -1.9352 0.6836 -0.2419 0
M  V30 54 H 0.5263 0.5063 1.0546 0
M  V30 55 H 1.3756 0.2322 -0.4712 0
M  V30 56 H -0.7204 -0.8963 -0.4589 0
M  V30 57 H -2.1638 0.3975 0.8037 0
M  V30 58 H -2.7175 0.1895 -0.8824 0
M  V30 59 C 2.0012 0.6943 -0.0383 0
M  V30 60 N 0.8461 0.1267 -0.6591 0
M  V30 61 C -0.4087 0.6836 -0.2419 0
M  V30 62 H 2.0528 0.5063 1.0546 0
M  V30 63 H 2.9021 0.2322 -0.4712 0
M  V30 64 H 0.8061 -0.8963 -0.4589 0
M  V30 65 H -0.6373 0.3975 0.8037 0
M  V30 66 H -1.1910 0.1895 -0.8824 0
M  V30 END ATOM
M  V30 BEGIN BOND
M  V30 1 1 1 2
M  V30 2 1 2 3
M  V30 3 1 3 4
M  V30 4 1 4 5
M  V30 5 1 5 6
M  V30 6 1 6 7
M  V30 7 1 1 8
M  V30 8 1 1 9
M  V30 9 1 2 10
M  V30 10 1 3 11
M  V30 11 1 3 12
M  V30 12 1 5 13
M  V30 13 1 6 14
M  V30 14 1 6 15
M  V30 15 1 7 16
M  V30 16 1 7 17
M  V30 17 1 18 19
M  V30 18 1 19 20
M  V30 19 1 20 21
M  V30 20 1 21 22
M  V30 21 1 22 23
M  V30 22 1 23 24
M  V30 23 1 18 25
M  V30 24 1 18 26
M  V30 25 1 19 27
M  V30 26 1 20 28
M  V30 27 1 20 29
M  V30 28 1 22 30
M  V30 29 1 23 31
M  V30 30 1 23 32
M  V30 31 1 24 33
M  V30 32 1 24 34
M  V30 33 1 35 36
M  V30 34 1 36 37
M  V30 35 1 35 38
M  V30 36 1 35 39
M  V30 37 1 36 40
M  V30 38 1 37 41
M  V30 39 1 37 42
M  V30 40 1 43 44
M  V30 41 1 44 45
M  V30 42 1 43 46
M  V30 43 1 43 47
M  V30 44 1 44 48
M  V30 45 1 45 49
M  V30 46 1 45 50
M  V30 47 1 51 52
M  V30 48 1 52 53
M  V30 49 1 51 54
M  V30 50 1 51 55
M  V30 51 1 52 56
M  V30 52 1 53 57
M  V30 53 1 53 58
M  V30 54 1 59 60
M  V30 55 1 60 61
M  V30 56 1 59 62
M  V30 57 1 59 63
M  V30 58 1 60 64
M  V30 59 1 61 65
M  V30 60 1 61 66
M  V30 61 1 1 43
M  V30 62 1 2 35
M  V30 63 1 5 59
M  V30 64 1 7 61
M  V30 65 1 18 51
M  V30 66 1 19 53
M  V30 67 1 22 45
M  V30 68 1 24 37
M  V30 END BOND
M  V30 END CTAB
M  END

$$$$
