
     RDKit          3D

  0  0  0  0  0  0  0  0  0  0999 V3000
M  V30 BEGIN CTAB
M  V30 COUNTS 66 68 0 0 0
M  V30 BEGIN ATOM
M  V30 1 C 4.6529 -2.1011 0.3003 0
M  V30 2 C 4.7187 -2.0680 1.8136 0
M  V30 3 C 3.7762 -1.0069 2.3752 0
M  V30 4 O 2.4970 -1.3257 1.9737 0
M  V30 5 C 1.5272 -0.4385 2.4161 0
M  V30 6 C 0.9089 0.2567 1.2553 0
M  V30 7 C -0.1578 1.2416 1.6556 0
M  V30 8 H 5.3126 -2.9314 -0.0254 0
M  V30 9 H 5.0235 -1.1244 -0.0706 0
M  V30 10 H 4.3966 -3.0926 2.1390 0
M  V30 11 H 3.9276 -0.9446 3.4650 0
M  V30 12 H 4.0825 -0.0525 1.8628 0
M  V30 13 H 2.0693 0.3352 3.0085 0
M  V30 14 H 1.6548 0.7785 0.6412 0
M  V30 15 H 0.3934 -0.4501 0.5476 0
M  V30 16 H 0.2945 1.9660 2.3791 0
M  V30 17 H -0.5204 1.8458 0.8089 0
M  V30 18 C -0.6565 -0.2978 -2.8369 0
M  V30 19 C -0.5907 -0.2646 -1.3236 0
M  V30 20 C -1.5332 0.7965 -0.7620 0
M  V30 21 O -2.8124 0.4777 -1.1635 0
M  V30 22 C -3.7823 1.3649 -0.7211 0
M  V30 23 C -4.4005 2.0601 -1.8819 0
M  V30 24 C -5.4672 3.0450 -1.4816 0
M  V30 25 H 0.0032 -1.1280 -3.1626 0
M  V30 26 H -0.2860 0.6790 -3.2078 0
M  V30 27 H -0.9129 -1.2892 -0.9982 0
M  V30 28 H -1.3818 0.8587 0.3278 0
M  V30 29 H -1.2269 1.7509 -1.2744 0
M  V30 30 H -3.2402 2.1385 -0.1287 0
M  V30 31 H -3.6546 2.5819 -2.4960 0
M  V30 32 H -4.9160 1.3533 -2.5896 0
M  V30 33 H -5.0149 3.7694 -0.7581 0
M  V30 34 H -5.8298 3.6492 -2.3284 0
M  V30 35 C -3.7542 1.7592 -2.8785 0
M  V30 36 N -4.9093 1.1916 -3.4993 0
M  V30 37 C -6.1641 1.7484 -3.0821 0
M  V30 38 H -3.7026 1.5712 -1.7855 0
M  V30 39 H -2.8533 1.2970 -3.3114 0
M  V30 40 H -4.9493 0.1686 -3.2990 0
M  V30 41 H -6.3927 1.4624 -2.0365 0
M  V30 42 H -6.9465 1.2543 -3.7225 0
M  V30 43 C 1.3663 -1.3032 -0.9176 0
M  V30 44 N 0.2112 -1.8708 -1.5383 0
M  V30 45 C -1.0436 -1.3140 -1.1211 0
M  V30 46 H 1.4179 -1.4912 0.1754 0
M  V30 47 H 2.2672 -1.7654 -1.3505 0
M  V30 48 H 0.1712 -2.8938 -1.3381 0
M  V30 49 H -1.2721 -1.6000 -0.0756 0
M  V30 50 H -1.8259 -1.8081 -1.7616 0
M  V30 51 C 6.2389 -1.6225 3.0353 0
M  V30 52 N 5.0838 -2.1900 2.4145 0
M  V30 53 C 3.8290 -1.6332 2.8317 0
M  V30 54 H 6.2905 -1.8104 4.1283 0
M  V30 55 H 7.1398 -2.0846 2.6024 0
M  V30 56 H 5.0438 -3.2131 2.6148 0
M  V30 57 H 3.6004 -1.9193 3.8773 0
M  V30 58 H 3.0466 -2.1273 2.1913 0
M  V30 59 C 1.1113 1.4226 1.0842 0
M  V30 60 N -0.0438 0.8551 0.4634 0
M  V30 61 C -1.2986 1.4119 0.8806 0
M  V30 62 H 1.1629 1.2347 2.1772 0
M  V30 63 H 2.0122 0.9605 0.6513 0
M  V30 64 H -0.0838 -0.1680 0.6637 0
M  V30 65 H -1.5272 1.1258 1.9262 0
M  V30 66 H -2.0809 0.9178 0.2402 0
M  V30 END ATOM
M  V30 BEGIN BOND
M  V30 1 1 1 2
M  V30 2 1 2 3
M  V30 3 1 3 4
M  V30 4 1 4 5
M  V30 5 1 5 6
M  V30 6 1 6 7
M  V30 7 1 1 8
M  V30 8 1 1 9
M  V30 9 1 2 10
M  V30 10 1 3 11
M  V30 11 1 3 12
M  V30 12 1 5 13
M  V30 13 1 6 14
M  V30 14 1 6 15
M  V30 15 1 7 16
M  V30 16 1 7 17
M  V30 17 1 18 19
M  V30 18 1 19 20
M  V30 19 1 20 21
M  V30 20 1 21 22
M  V30 21 1 22 23
M  V30 22 1 23 24
M  V30 23 1 18 25
M  V30 24 1 18 26
M  V30 25 1 19 27
M  V30 26 1 20 28
M  V30 27 1 20 29
M  V30 28 1 22 30
M  V30 29 1 23 31
M  V30 30 1 23 32
M  V30 31 1 24 33
M  V30 32 1 24 34
M  V30 33 1 35 36
M  V30 34 1 36 37
M  V30 35 1 35 38
M  V30 36 1 35 39
M  V30 37 1 36 40
M  V30 38 1 37 41
M  V30 39 1 37 42
M  V30 40 1 43 44
M  V30 41 1 44 45
M  V30 42 1 43 46
M  V30 43 1 43 47
M  V30 44 1 44 48
M  V30 45 1 45 49
M  V30 46 1 45 50
M  V30 47 1 51 52
M  V30 48 1 52 53
M  V30 49 1 51 54
M  V30 50 1 51 55
M  V30 51 1 52 56
M  V30 52 1 53 57
M  V30 53 1 53 58
M  V30 54 1 59 60
M  V30 55 1 60 61
M  V30 56 1 59 62
M  V30 57 1 59 63
M  V30 58 1 60 64
M  V30 59 1 61 65
M  V30 60 1 61 66
M  V30 61 1 1 59
M  V30 62 1 2 51
M  V30 63 1 5 53
M  V30 64 1 7 43
M  V30 65 1 18 61
M  V30 66 1 19 45
M  V30 67 1 22 35
M  V30 68 1 24 37
M  V30 END BOND
M  V30 END CTAB
M  END

$$$$
