
     RDKit          3D

  0  0  0  0  0  0  0  0  0  0999 V3000
M  V30 BEGIN CTAB
M  V30 COUNTS 38 38 0 0 0
M  V30 BEGIN ATOM
M  V30 1 C -1.7145 -3.3199 2.4028 0
M  V30 2 B -1.8880 -1.9914 1.5383 0
M  V30 3 C -0.6087 -1.2375 0.9355 0
M  V30 4 H -0.6636 -3.6659 2.2604 0
M  V30 5 H -2.8580 -1.3070 1.6447 0
M  V30 6 H -0.8143 -0.8515 -0.0728 0
M  V30 7 H -0.2611 -0.4461 1.6373 0
M  V30 8 C 0.9935 2.0274 -0.0973 0
M  V30 9 B 1.9475 1.9238 -1.3707 0
M  V30 10 C 1.4052 2.3063 -2.8295 0
M  V30 11 H 0.0908 2.6019 -0.4128 0
M  V30 12 H 2.9016 1.2095 -1.3717 0
M  V30 13 H 2.1732 2.8340 -3.4124 0
M  V30 14 H 1.0186 1.3996 -3.3473 0
M  V30 15 C -0.0775 0.3619 2.9118 0
M  V30 16 N -0.0263 1.7687 2.6670 0
M  V30 17 C 0.8781 2.1770 1.6306 0
M  V30 18 H 0.8749 -0.0536 3.3027 0
M  V30 19 H -0.8381 0.1614 3.6824 0
M  V30 20 H 0.2635 2.2667 3.5367 0
M  V30 21 H 1.9298 2.0358 1.9488 0
M  V30 22 H 0.7299 3.2865 1.5145 0
M  V30 23 C -0.8437 -2.2891 -1.4278 0
M  V30 24 N 0.0613 -1.8860 -2.4575 0
M  V30 25 C 0.1188 -0.4735 -2.7032 0
M  V30 26 H -1.9078 -2.0850 -1.6699 0
M  V30 27 H -0.7647 -3.3787 -1.2900 0
M  V30 28 H -0.2054 -2.3404 -3.3579 0
M  V30 29 H -0.8196 -0.1179 -3.1724 0
M  V30 30 H 0.9295 -0.3289 -3.4701 0
M  V30 31 C 2.6741 4.9440 -3.4204 0
M  V30 32 H 2.2999 4.3501 -4.2770 0
M  V30 33 H 2.2987 5.9949 -3.4679 0
M  V30 34 H 2.3360 4.4170 -2.5025 0
M  V30 35 C -2.6364 -5.0559 3.6260 0
M  V30 36 H -3.0106 -5.6499 2.7694 0
M  V30 37 H -3.0119 -4.0051 3.5786 0
M  V30 38 H -2.9746 -5.5830 4.5439 0
M  V30 END ATOM
M  V30 BEGIN BOND
M  V30 1 1 1 2
M  V30 2 1 2 3
M  V30 3 1 1 4
M  V30 4 1 2 5
M  V30 5 1 3 6
M  V30 6 1 3 7
M  V30 7 1 8 9
M  V30 8 1 9 10
M  V30 9 1 8 11
M  V30 10 1 9 12
M  V30 11 1 10 13
M  V30 12 1 10 14
M  V30 13 1 15 16
M  V30 14 1 16 17
M  V30 15 1 15 18
M  V30 16 1 15 19
M  V30 17 1 16 20
M  V30 18 1 17 21
M  V30 19 1 17 22
M  V30 20 1 23 24
M  V30 21 1 24 25
M  V30 22 1 23 26
M  V30 23 1 23 27
M  V30 24 1 24 28
M  V30 25 1 25 29
M  V30 26 1 25 30
M  V30 27 1 31 32
M  V30 28 1 31 33
M  V30 29 1 31 34
M  V30 30 1 35 36
M  V30 31 1 35 37
M  V30 32 1 35 38
M  V30 33 1 1 35
M  V30 34 1 3 15
M  V30 35 1 1 23
M  V30 36 1 8 17
M  V30 37 1 8 31
M  V30 38 1 10 25
M  V30 END BOND
M  V30 END CTAB
M  END

$$$$
