
     RDKit          3D

  0  0  0  0  0  0  0  0  0  0999 V3000
M  V30 BEGIN CTAB
M  V30 COUNTS 38 38 0 0 0
M  V30 BEGIN ATOM
M  V30 1 C 2.0533 0.0517 -0.1830 0
M  V30 2 B 0.6861 0.8690 -0.1129 0
M  V30 3 C -0.7230 0.1111 -0.2052 0
M  V30 4 H 1.7950 -1.0263 -0.0575 0
M  V30 5 H 0.6425 2.0260 -0.3960 0
M  V30 6 H -1.4594 0.5584 0.4772 0
M  V30 7 H -1.0763 0.0809 -1.2607 0
M  V30 8 C 1.1087 0.0517 0.1404 0
M  V30 9 B -0.2586 0.8690 0.2104 0
M  V30 10 C -1.6677 0.1111 0.1181 0
M  V30 11 H 0.8503 -1.0263 0.2658 0
M  V30 12 H -0.3022 2.0260 -0.0726 0
M  V30 13 H -2.4041 0.5584 0.8005 0
M  V30 14 H -2.0210 0.0809 -0.9373 0
M  V30 15 C 0.8029 0.0868 0.7088 0
M  V30 16 N -0.3522 -0.4808 0.0880 0
M  V30 17 C -1.6070 0.0761 0.5052 0
M  V30 18 H 0.8545 -0.1012 1.8018 0
M  V30 19 H 1.7037 -0.3753 0.2759 0
M  V30 20 H -0.3922 -1.5038 0.2883 0
M  V30 21 H -1.8356 -0.2100 1.5508 0
M  V30 22 H -2.3894 -0.4180 -0.1352 0
M  V30 23 C 1.3735 0.0868 -0.8253 0
M  V30 24 N 0.2184 -0.4808 -1.4460 0
M  V30 25 C -1.0364 0.0761 -1.0288 0
M  V30 26 H 1.4251 -0.1012 0.2677 0
M  V30 27 H 2.2744 -0.3753 -1.2582 0
M  V30 28 H 0.1784 -1.5038 -1.2458 0
M  V30 29 H -1.2650 -0.2100 0.0167 0
M  V30 30 H -1.8187 -0.4180 -1.6693 0
M  V30 31 C 0.8522 0.9727 0.4113 0
M  V30 32 H 0.4780 0.3788 -0.4453 0
M  V30 33 H 0.4767 2.0236 0.3638 0
M  V30 34 H 0.5140 0.4456 1.3292 0
M  V30 35 C 0.8522 -0.8098 0.4113 0
M  V30 36 H 0.4780 -1.4038 -0.4453 0
M  V30 37 H 0.4767 0.2411 0.3638 0
M  V30 38 H 0.5140 -1.3369 1.3292 0
M  V30 END ATOM
M  V30 BEGIN BOND
M  V30 1 1 1 2
M  V30 2 1 2 3
M  V30 3 1 1 4
M  V30 4 1 2 5
M  V30 5 1 3 6
M  V30 6 1 3 7
M  V30 7 1 8 9
M  V30 8 1 9 10
M  V30 9 1 8 11
M  V30 10 1 9 12
M  V30 11 1 10 13
M  V30 12 1 10 14
M  V30 13 1 15 16
M  V30 14 1 16 17
M  V30 15 1 15 18
M  V30 16 1 15 19
M  V30 17 1 16 20
M  V30 18 1 17 21
M  V30 19 1 17 22
M  V30 20 1 23 24
M  V30 21 1 24 25
M  V30 22 1 23 26
M  V30 23 1 23 27
M  V30 24 1 24 28
M  V30 25 1 25 29
M  V30 26 1 25 30
M  V30 27 1 31 32
M  V30 28 1 31 33
M  V30 29 1 31 34
M  V30 30 1 35 36
M  V30 31 1 35 37
M  V30 32 1 35 38
M  V30 33 1 1 35
M  V30 34 1 1 31
M  V30 35 1 3 23
M  V30 36 1 8 25
M  V30 37 1 8 15
M  V30 38 1 10 17
M  V30 END BOND
M  V30 END CTAB
M  END

$$$$
