
     RDKit          3D

  0  0  0  0  0  0  0  0  0  0999 V3000
M  V30 BEGIN CTAB
M  V30 COUNTS 38 38 0 0 0
M  V30 BEGIN ATOM
M  V30 1 C -0.9155 0.5942 1.0483 0
M  V30 2 B -2.2827 1.4115 1.1184 0
M  V30 3 C -3.6918 0.6537 1.0261 0
M  V30 4 H -1.1739 -0.4838 1.1737 0
M  V30 5 H -2.3263 2.5685 0.8353 0
M  V30 6 H -4.4282 1.1009 1.7085 0
M  V30 7 H -4.0451 0.6235 -0.0294 0
M  V30 8 C 3.7059 -0.4056 -0.8520 0
M  V30 9 B 2.3387 0.4118 -0.7819 0
M  V30 10 C 0.9296 -0.3461 -0.8743 0
M  V30 11 H 3.4475 -1.4836 -0.7266 0
M  V30 12 H 2.2951 1.5687 -1.0650 0
M  V30 13 H 0.1932 0.1011 -0.1919 0
M  V30 14 H 0.5763 -0.3763 -1.9297 0
M  V30 15 C 5.7537 -0.8559 -1.6778 0
M  V30 16 N 4.5986 -1.4235 -2.2985 0
M  V30 17 C 3.3438 -0.8666 -1.8813 0
M  V30 18 H 5.8053 -1.0439 -0.5848 0
M  V30 19 H 6.6546 -1.3180 -2.1107 0
M  V30 20 H 4.5586 -2.4465 -2.0983 0
M  V30 21 H 3.1152 -1.1527 -0.8358 0
M  V30 22 H 2.5615 -1.3607 -2.5218 0
M  V30 23 C 1.2653 0.1176 0.1665 0
M  V30 24 N 0.1102 -0.4500 -0.4543 0
M  V30 25 C -1.1447 0.1068 -0.0370 0
M  V30 26 H 1.3169 -0.0704 1.2595 0
M  V30 27 H 2.1661 -0.3446 -0.2664 0
M  V30 28 H 0.0701 -1.4730 -0.2540 0
M  V30 29 H -1.3732 -0.1792 1.0085 0
M  V30 30 H -1.9270 -0.3873 -0.6775 0
M  V30 31 C -2.8005 2.4645 2.8862 0
M  V30 32 H -3.1747 1.8706 2.0296 0
M  V30 33 H -3.1759 3.5154 2.8387 0
M  V30 34 H -3.1386 1.9374 3.8040 0
M  V30 35 C -4.5300 -0.6270 0.3080 0
M  V30 36 H -4.9042 -1.2210 -0.5486 0
M  V30 37 H -4.9055 0.4238 0.2605 0
M  V30 38 H -4.8682 -1.1541 1.2259 0
M  V30 END ATOM
M  V30 BEGIN BOND
M  V30 1 1 1 2
M  V30 2 1 2 3
M  V30 3 1 1 4
M  V30 4 1 2 5
M  V30 5 1 3 6
M  V30 6 1 3 7
M  V30 7 1 8 9
M  V30 8 1 9 10
M  V30 9 1 8 11
M  V30 10 1 9 12
M  V30 11 1 10 13
M  V30 12 1 10 14
M  V30 13 1 15 16
M  V30 14 1 16 17
M  V30 15 1 15 18
M  V30 16 1 15 19
M  V30 17 1 16 20
M  V30 18 1 17 21
M  V30 19 1 17 22
M  V30 20 1 23 24
M  V30 21 1 24 25
M  V30 22 1 23 26
M  V30 23 1 23 27
M  V30 24 1 24 28
M  V30 25 1 25 29
M  V30 26 1 25 30
M  V30 27 1 31 32
M  V30 28 1 31 33
M  V30 29 1 31 34
M  V30 30 1 35 36
M  V30 31 1 35 37
M  V30 32 1 35 38
M  V30 33 1 1 35
M  V30 34 1 1 31
M  V30 35 1 3 23
M  V30 36 1 8 25
M  V30 37 1 8 15
M  V30 38 1 10 17
M  V30 END BOND
M  V30 END CTAB
M  END

$$$$
