
     RDKit          3D

  0  0  0  0  0  0  0  0  0  0999 V3000
M  V30 BEGIN CTAB
M  V30 COUNTS 66 68 0 0 0
M  V30 BEGIN ATOM
M  V30 1 C 0.8767 3.8098 -1.0874 0
M  V30 2 C 0.9367 3.9746 0.4175 0
M  V30 3 C -0.4445 3.7880 1.0398 0
M  V30 4 O -0.8773 2.5170 0.7296 0
M  V30 5 C -2.1308 2.2065 1.2355 0
M  V30 6 C -3.0891 1.9910 0.1183 0
M  V30 7 C -4.4784 1.6493 0.5887 0
M  V30 8 H 1.9195 3.8974 -1.4555 0
M  V30 9 H 0.2400 4.6248 -1.4865 0
M  V30 10 H 1.6381 3.1718 0.7680 0
M  V30 11 H -0.3778 4.0149 2.1162 0
M  V30 12 H -1.1018 4.5284 0.5041 0
M  V30 13 H -2.4707 3.1147 1.7860 0
M  V30 14 H -3.1491 2.8617 -0.5481 0
M  V30 15 H -2.7952 1.1343 -0.5493 0
M  V30 16 H -4.8205 2.4633 1.2764 0
M  V30 17 H -5.2117 1.6186 -0.2328 0
M  V30 18 C -0.1840 -3.1263 -2.5802 0
M  V30 19 C -0.7602 -3.8005 -1.3518 0
M  V30 20 C 0.2969 -3.9335 -0.2590 0
M  V30 21 O 0.7268 -2.6654 0.0670 0
M  V30 22 C 1.6978 -2.6336 1.0568 0
M  V30 23 C 2.9723 -2.1061 0.4998 0
M  V30 24 C 4.0805 -2.0417 1.5176 0
M  V30 25 H -1.0216 -3.0114 -3.2983 0
M  V30 26 H 0.6047 -3.7913 -2.9859 0
M  V30 27 H -1.5914 -3.1256 -1.0154 0
M  V30 28 H -0.1303 -4.5160 0.5733 0
M  V30 29 H 1.1482 -4.4825 -0.7500 0
M  V30 30 H 1.8805 -3.6969 1.3386 0
M  V30 31 H 3.3208 -2.6922 -0.3609 0
M  V30 32 H 2.8772 -1.0532 0.1146 0
M  V30 33 H 4.2107 -3.0649 1.9522 0
M  V30 34 H 5.0528 -1.7753 1.0736 0
M  V30 35 C -4.9846 -1.0881 3.1276 0
M  V30 36 N -4.6450 -2.3261 3.7552 0
M  V30 37 C -4.0578 -3.3095 2.8909 0
M  V30 38 H -5.7837 -1.1849 2.3631 0
M  V30 39 H -5.3733 -0.3962 3.8909 0
M  V30 40 H -5.5003 -2.7571 4.1687 0
M  V30 41 H -4.8063 -3.6988 2.1730 0
M  V30 42 H -3.7787 -4.1737 3.5555 0
M  V30 43 C -3.4688 0.4087 -4.9042 0
M  V30 44 N -3.7026 -0.9721 -5.1876 0
M  V30 45 C -2.5392 -1.8109 -5.1466 0
M  V30 46 H -2.8319 0.9134 -5.6607 0
M  V30 47 H -4.4321 0.9421 -4.9101 0
M  V30 48 H -4.1147 -1.0706 -6.1409 0
M  V30 49 H -1.8649 -1.5892 -5.9972 0
M  V30 50 H -2.9127 -2.8605 -5.3053 0
M  V30 51 C 2.5530 1.8226 5.0963 0
M  V30 52 N 3.7104 0.9856 5.1372 0
M  V30 53 C 3.4734 -0.4007 4.8529 0
M  V30 54 H 1.8060 1.5824 5.8817 0
M  V30 55 H 2.8601 2.8649 5.2745 0
M  V30 56 H 4.1443 1.0315 6.0848 0
M  V30 57 H 2.9060 -0.8790 5.6754 0
M  V30 58 H 4.4873 -0.8889 4.8434 0
M  V30 59 C 4.0715 3.3199 -2.9413 0
M  V30 60 N 4.6525 2.3412 -3.8052 0
M  V30 61 C 4.9909 1.0955 -3.1787 0
M  V30 62 H 4.7629 3.6761 -2.1490 0
M  V30 63 H 3.8045 4.2072 -3.5362 0
M  V30 64 H 5.5300 2.7187 -4.2245 0
M  V30 65 H 5.8482 1.2229 -2.4888 0
M  V30 66 H 5.3498 0.4237 -4.0071 0
M  V30 END ATOM
M  V30 BEGIN BOND
M  V30 1 1 1 2
M  V30 2 1 2 3
M  V30 3 1 3 4
M  V30 4 1 4 5
M  V30 5 1 5 6
M  V30 6 1 6 7
M  V30 7 1 1 8
M  V30 8 1 1 9
M  V30 9 1 2 10
M  V30 10 1 3 11
M  V30 11 1 3 12
M  V30 12 1 5 13
M  V30 13 1 6 14
M  V30 14 1 6 15
M  V30 15 1 7 16
M  V30 16 1 7 17
M  V30 17 1 18 19
M  V30 18 1 19 20
M  V30 19 1 20 21
M  V30 20 1 21 22
M  V30 21 1 22 23
M  V30 22 1 23 24
M  V30 23 1 18 25
M  V30 24 1 18 26
M  V30 25 1 19 27
M  V30 26 1 20 28
M  V30 27 1 20 29
M  V30 28 1 22 30
M  V30 29 1 23 31
M  V30 30 1 23 32
M  V30 31 1 24 33
M  V30 32 1 24 34
M  V30 33 1 35 36
M  V30 34 1 36 37
M  V30 35 1 35 38
M  V30 36 1 35 39
M  V30 37 1 36 40
M  V30 38 1 37 41
M  V30 39 1 37 42
M  V30 40 1 43 44
M  V30 41 1 44 45
M  V30 42 1 43 46
M  V30 43 1 43 47
M  V30 44 1 44 48
M  V30 45 1 45 49
M  V30 46 1 45 50
M  V30 47 1 51 52
M  V30 48 1 52 53
M  V30 49 1 51 54
M  V30 50 1 51 55
M  V30 51 1 52 56
M  V30 52 1 53 57
M  V30 53 1 53 58
M  V30 54 1 59 60
M  V30 55 1 60 61
M  V30 56 1 59 62
M  V30 57 1 59 63
M  V30 58 1 60 64
M  V30 59 1 61 65
M  V30 60 1 61 66
M  V30 61 1 1 59
M  V30 62 1 7 43
M  V30 63 1 5 35
M  V30 64 1 2 51
M  V30 65 1 18 45
M  V30 66 1 24 61
M  V30 67 1 22 53
M  V30 68 1 19 37
M  V30 END BOND
M  V30 END CTAB
M  END

$$$$
