
     RDKit          3D

  0  0  0  0  0  0  0  0  0  0999 V3000
M  V30 BEGIN CTAB
M  V30 COUNTS 66 68 0 0 0
M  V30 BEGIN ATOM
M  V30 1 C -1.5439 -2.2246 0.6927 0
M  V30 2 C -0.0668 -2.4896 0.9008 0
M  V30 3 C 0.7723 -1.7104 -0.1084 0
M  V30 4 O 0.5117 -0.3696 0.0740 0
M  V30 5 C 1.2122 0.4652 -0.7839 0
M  V30 6 C 0.2654 1.1758 -1.6847 0
M  V30 7 C 0.9527 2.1045 -2.6508 0
M  V30 8 H -2.0782 -2.7722 1.4960 0
M  V30 9 H -1.8146 -2.6156 -0.3086 0
M  V30 10 H 0.1454 -2.1369 1.9448 0
M  V30 11 H 1.8272 -2.0070 0.0092 0
M  V30 12 H 0.3688 -2.0178 -1.1134 0
M  V30 13 H 1.8304 -0.2059 -1.4247 0
M  V30 14 H -0.3634 0.4795 -2.2553 0
M  V30 15 H -0.4596 1.8307 -1.1264 0
M  V30 16 H 1.7047 1.5088 -3.2274 0
M  V30 17 H 0.2640 2.5282 -3.3989 0
M  V30 18 C 1.9003 -0.7551 1.9055 0
M  V30 19 C 0.5072 -1.1924 2.3097 0
M  V30 20 C -0.5420 -0.2148 1.7871 0
M  V30 21 O -0.4450 -0.1887 0.4127 0
M  V30 22 C -1.3476 0.6659 -0.2024 0
M  V30 23 C -0.6178 1.7691 -0.8832 0
M  V30 24 C -1.5329 2.7437 -1.5766 0
M  V30 25 H 2.5943 -1.5420 2.2658 0
M  V30 26 H 2.1016 0.2158 2.4012 0
M  V30 27 H 0.3737 -2.2022 1.8387 0
M  V30 28 H -1.5261 -0.5103 2.1858 0
M  V30 29 H -0.2218 0.7881 2.1856 0
M  V30 30 H -1.9407 1.1271 0.6215 0
M  V30 31 H 0.0276 2.3262 -0.1911 0
M  V30 32 H 0.0728 1.4014 -1.6918 0
M  V30 33 H -2.2601 3.1333 -0.8203 0
M  V30 34 H -1.0004 3.6256 -1.9670 0
M  V30 35 C 0.8843 0.1301 -1.4764 0
M  V30 36 N 1.6064 0.8533 -0.4778 0
M  V30 37 C 0.8004 1.4503 0.5483 0
M  V30 38 H 0.2195 0.7713 -2.0924 0
M  V30 39 H 1.6024 -0.3266 -2.1751 0
M  V30 40 H 2.1489 1.6241 -0.9250 0
M  V30 41 H 0.2088 2.2942 0.1420 0
M  V30 42 H 1.5242 1.8981 1.2845 0
M  V30 43 C 1.2304 -1.3800 -0.1491 0
M  V30 44 N 1.0602 -1.1950 1.2575 0
M  V30 45 C 0.7895 0.1526 1.6691 0
M  V30 46 H 2.1238 -0.8630 -0.5580 0
M  V30 47 H 1.3774 -2.4522 -0.3526 0
M  V30 48 H 1.9232 -1.4983 1.7591 0
M  V30 49 H 1.6845 0.7917 1.5350 0
M  V30 50 H 0.6011 0.1022 2.7774 0
M  V30 51 C -0.7716 -0.3221 -1.5219 0
M  V30 52 N -1.0391 1.0206 -1.1129 0
M  V30 53 C -1.2079 1.2080 0.2995 0
M  V30 54 H -1.6133 -1.0194 -1.3271 0
M  V30 55 H -0.6073 -0.3373 -2.6106 0
M  V30 56 H -1.9126 1.3604 -1.5711 0
M  V30 57 H -2.1541 0.7480 0.6466 0
M  V30 58 H -1.3229 2.3174 0.4496 0
M  V30 59 C -0.6043 -1.7288 -0.2955 0
M  V30 60 N -1.5736 -1.0906 0.5380 0
M  V30 61 C -1.0390 -0.1933 1.5218 0
M  V30 62 H 0.0695 -2.4167 0.2571 0
M  V30 63 H -1.1273 -2.3467 -1.0420 0
M  V30 64 H -2.1247 -1.8118 1.0523 0
M  V30 65 H -0.4986 -0.7522 2.3110 0
M  V30 66 H -1.9297 0.2780 2.0226 0
M  V30 END ATOM
M  V30 BEGIN BOND
M  V30 1 1 1 2
M  V30 2 1 2 3
M  V30 3 1 3 4
M  V30 4 1 4 5
M  V30 5 1 5 6
M  V30 6 1 6 7
M  V30 7 1 1 8
M  V30 8 1 1 9
M  V30 9 1 2 10
M  V30 10 1 3 11
M  V30 11 1 3 12
M  V30 12 1 5 13
M  V30 13 1 6 14
M  V30 14 1 6 15
M  V30 15 1 7 16
M  V30 16 1 7 17
M  V30 17 1 18 19
M  V30 18 1 19 20
M  V30 19 1 20 21
M  V30 20 1 21 22
M  V30 21 1 22 23
M  V30 22 1 23 24
M  V30 23 1 18 25
M  V30 24 1 18 26
M  V30 25 1 19 27
M  V30 26 1 20 28
M  V30 27 1 20 29
M  V30 28 1 22 30
M  V30 29 1 23 31
M  V30 30 1 23 32
M  V30 31 1 24 33
M  V30 32 1 24 34
M  V30 33 1 35 36
M  V30 34 1 36 37
M  V30 35 1 35 38
M  V30 36 1 35 39
M  V30 37 1 36 40
M  V30 38 1 37 41
M  V30 39 1 37 42
M  V30 40 1 43 44
M  V30 41 1 44 45
M  V30 42 1 43 46
M  V30 43 1 43 47
M  V30 44 1 44 48
M  V30 45 1 45 49
M  V30 46 1 45 50
M  V30 47 1 51 52
M  V30 48 1 52 53
M  V30 49 1 51 54
M  V30 50 1 51 55
M  V30 51 1 52 56
M  V30 52 1 53 57
M  V30 53 1 53 58
M  V30 54 1 59 60
M  V30 55 1 60 61
M  V30 56 1 59 62
M  V30 57 1 59 63
M  V30 58 1 60 64
M  V30 59 1 61 65
M  V30 60 1 61 66
M  V30 61 1 1 59
M  V30 62 1 2 43
M  V30 63 1 5 35
M  V30 64 1 7 51
M  V30 65 1 18 45
M  V30 66 1 19 61
M  V30 67 1 22 53
M  V30 68 1 24 37
M  V30 END BOND
M  V30 END CTAB
M  END

$$$$
