
     RDKit          3D

  0  0  0  0  0  0  0  0  0  0999 V3000
M  V30 BEGIN CTAB
M  V30 COUNTS 114 117 0 0 0
M  V30 BEGIN ATOM
M  V30 1 C 1.4556 -2.2264 0.5706 0
M  V30 2 C 1.5214 -2.1933 2.0839 0
M  V30 3 C 0.5789 -1.1322 2.6454 0
M  V30 4 O -0.7003 -1.4509 2.2440 0
M  V30 5 C -1.6702 -0.5637 2.6864 0
M  V30 6 C -2.2884 0.1315 1.5256 0
M  V30 7 C -3.3551 1.1164 1.9259 0
M  V30 8 H 2.1153 -3.0566 0.2449 0
M  V30 9 H 1.8261 -1.2497 0.1997 0
M  V30 10 H 1.1992 -3.2178 2.4092 0
M  V30 11 H 0.7303 -1.0699 3.7353 0
M  V30 12 H 0.8852 -0.1778 2.1331 0
M  V30 13 H -1.1281 0.2099 3.2787 0
M  V30 14 H -1.5425 0.6533 0.9115 0
M  V30 15 H -2.8039 -0.5753 0.8179 0
M  V30 16 H -2.9028 1.8408 2.6494 0
M  V30 17 H -3.7177 1.7206 1.0791 0
M  V30 18 C 4.7032 2.3236 -2.9755 0
M  V30 19 C 4.7690 2.3567 -1.4622 0
M  V30 20 C 3.8264 3.4178 -0.9006 0
M  V30 21 O 2.5472 3.0991 -1.3021 0
M  V30 22 C 1.5774 3.9863 -0.8597 0
M  V30 23 C 0.9592 4.6815 -2.0205 0
M  V30 24 C -0.1075 5.6664 -1.6202 0
M  V30 25 H 5.3628 1.4934 -3.3012 0
M  V30 26 H 5.0737 3.3003 -3.3464 0
M  V30 27 H 4.4468 1.3322 -1.1368 0
M  V30 28 H 3.9779 3.4801 0.1892 0
M  V30 29 H 4.1328 4.3723 -1.4130 0
M  V30 30 H 2.1195 4.7599 -0.2673 0
M  V30 31 H 1.7051 5.2033 -2.6346 0
M  V30 32 H 0.4436 3.9747 -2.7282 0
M  V30 33 H 0.3448 6.3908 -0.8967 0
M  V30 34 H -0.4701 6.2706 -2.4669 0
M  V30 35 C 0.3660 -2.5666 -1.9482 0
M  V30 36 C 0.4318 -2.5335 -0.4349 0
M  V30 37 C -0.5107 -1.4724 0.1267 0
M  V30 38 O -1.7899 -1.7911 -0.2748 0
M  V30 39 C -2.7598 -0.9039 0.1676 0
M  V30 40 C -3.3780 -0.2087 -0.9932 0
M  V30 41 C -4.4447 0.7762 -0.5929 0
M  V30 42 H 1.0257 -3.3968 -2.2739 0
M  V30 43 H 0.7366 -1.5899 -2.3191 0
M  V30 44 H 0.1097 -3.5581 -0.1095 0
M  V30 45 H -0.3593 -1.4101 1.2165 0
M  V30 46 H -0.2044 -0.5180 -0.3857 0
M  V30 47 H -2.2176 -0.1303 0.7600 0
M  V30 48 H -2.6321 0.3130 -1.6073 0
M  V30 49 H -3.8935 -0.9155 -1.7009 0
M  V30 50 H -3.9924 1.5006 0.1306 0
M  V30 51 H -4.8073 1.3804 -1.4397 0
M  V30 52 C -1.9892 -0.3265 1.4700 0
M  V30 53 N -3.1443 -0.8940 0.8492 0
M  V30 54 C -4.3992 -0.3372 1.2665 0
M  V30 55 H -1.9376 -0.5144 2.5630 0
M  V30 56 H -1.0884 -0.7886 1.0371 0
M  V30 57 H -3.1844 -1.9171 1.0495 0
M  V30 58 H -4.6277 -0.6233 2.3120 0
M  V30 59 H -5.1815 -0.8313 0.6260 0
M  V30 60 C 1.5609 1.3243 -2.3368 0
M  V30 61 N 0.4058 0.7567 -2.9575 0
M  V30 62 C -0.8490 1.3136 -2.5403 0
M  V30 63 H 1.6125 1.1364 -1.2438 0
M  V30 64 H 2.4618 0.8622 -2.7697 0
M  V30 65 H 0.3658 -0.2663 -2.7573 0
M  V30 66 H -1.0776 1.0275 -1.4948 0
M  V30 67 H -1.6313 0.8195 -3.1808 0
M  V30 68 C 5.3710 5.3534 -2.4910 0
M  V30 69 N 4.2159 4.7859 -3.1118 0
M  V30 70 C 2.9611 5.3427 -2.6946 0
M  V30 71 H 5.4226 5.1655 -1.3981 0
M  V30 72 H 6.2719 4.8913 -2.9239 0
M  V30 73 H 4.1759 3.7628 -2.9116 0
M  V30 74 H 2.7325 5.0567 -1.6490 0
M  V30 75 H 2.1787 4.8486 -3.3351 0
M  V30 76 C -0.5963 1.7571 0.7168 0
M  V30 77 C 0.1282 0.6410 1.4118 0
M  V30 78 S 1.7707 1.1369 1.8707 0
M  V30 79 C 2.9211 1.4257 0.5494 0
M  V30 80 C 4.2538 1.8123 1.2028 0
M  V30 81 H -0.7191 2.6403 1.3970 0
M  V30 82 H -1.6360 1.4110 0.4242 0
M  V30 83 H -0.4570 0.4279 2.3558 0
M  V30 84 H 0.0845 -0.3115 0.8461 0
M  V30 85 H 2.6502 2.3265 -0.0373 0
M  V30 86 H 3.0684 0.5806 -0.1480 0
M  V30 87 H 5.0556 1.9567 0.4815 0
M  V30 88 H 4.5323 1.0185 1.9330 0
M  V30 89 C -4.9584 -2.9984 1.2095 0
M  V30 90 C -4.2339 -4.1145 1.9045 0
M  V30 91 S -2.5914 -3.6186 2.3634 0
M  V30 92 C -1.4410 -3.3298 1.0421 0
M  V30 93 C -0.1084 -2.9432 1.6955 0
M  V30 94 H -5.0812 -2.1152 1.8897 0
M  V30 95 H -5.9981 -3.3445 0.9169 0
M  V30 96 H -4.8191 -4.3277 2.8485 0
M  V30 97 H -4.2776 -5.0670 1.3388 0
M  V30 98 H -1.7119 -2.4290 0.4554 0
M  V30 99 H -1.2938 -4.1750 0.3447 0
M  V30 100 H 0.6935 -2.7988 0.9742 0
M  V30 101 H 0.1702 -3.7370 2.4257 0
M  V30 102 C -2.4718 -3.3535 0.1696 0
M  V30 103 C -1.7474 -4.4696 0.8646 0
M  V30 104 S -0.1049 -3.9738 1.3236 0
M  V30 105 C 1.0455 -3.6849 0.0023 0
M  V30 106 C 2.3782 -3.2984 0.6556 0
M  V30 107 H -2.5947 -2.4703 0.8498 0
M  V30 108 H -3.5116 -3.6997 -0.1229 0
M  V30 109 H -2.3326 -4.6828 1.8087 0
M  V30 110 H -1.7911 -5.4222 0.2989 0
M  V30 111 H 0.7747 -2.7842 -0.5845 0
M  V30 112 H 1.1928 -4.5301 -0.6952 0
M  V30 113 H 3.1800 -3.1539 -0.0657 0
M  V30 114 H 2.6567 -4.0922 1.3858 0
M  V30 END ATOM
M  V30 BEGIN BOND
M  V30 1 1 1 2
M  V30 2 1 2 3
M  V30 3 1 3 4
M  V30 4 1 4 5
M  V30 5 1 5 6
M  V30 6 1 6 7
M  V30 7 1 1 8
M  V30 8 1 1 9
M  V30 9 1 2 10
M  V30 10 1 3 11
M  V30 11 1 3 12
M  V30 12 1 5 13
M  V30 13 1 6 14
M  V30 14 1 6 15
M  V30 15 1 7 16
M  V30 16 1 7 17
M  V30 17 1 18 19
M  V30 18 1 19 20
M  V30 19 1 20 21
M  V30 20 1 21 22
M  V30 21 1 22 23
M  V30 22 1 23 24
M  V30 23 1 18 25
M  V30 24 1 18 26
M  V30 25 1 19 27
M  V30 26 1 20 28
M  V30 27 1 20 29
M  V30 28 1 22 30
M  V30 29 1 23 31
M  V30 30 1 23 32
M  V30 31 1 24 33
M  V30 32 1 24 34
M  V30 33 1 35 36
M  V30 34 1 36 37
M  V30 35 1 37 38
M  V30 36 1 38 39
M  V30 37 1 39 40
M  V30 38 1 40 41
M  V30 39 1 35 42
M  V30 40 1 35 43
M  V30 41 1 36 44
M  V30 42 1 37 45
M  V30 43 1 37 46
M  V30 44 1 39 47
M  V30 45 1 40 48
M  V30 46 1 40 49
M  V30 47 1 41 50
M  V30 48 1 41 51
M  V30 49 1 52 53
M  V30 50 1 53 54
M  V30 51 1 52 55
M  V30 52 1 52 56
M  V30 53 1 53 57
M  V30 54 1 54 58
M  V30 55 1 54 59
M  V30 56 1 60 61
M  V30 57 1 61 62
M  V30 58 1 60 63
M  V30 59 1 60 64
M  V30 60 1 61 65
M  V30 61 1 62 66
M  V30 62 1 62 67
M  V30 63 1 68 69
M  V30 64 1 69 70
M  V30 65 1 68 71
M  V30 66 1 68 72
M  V30 67 1 69 73
M  V30 68 1 70 74
M  V30 69 1 70 75
M  V30 70 1 76 77
M  V30 71 1 77 78
M  V30 72 1 78 79
M  V30 73 1 79 80
M  V30 74 1 76 81
M  V30 75 1 76 82
M  V30 76 1 77 83
M  V30 77 1 77 84
M  V30 78 1 79 85
M  V30 79 1 79 86
M  V30 80 1 80 87
M  V30 81 1 80 88
M  V30 82 1 89 90
M  V30 83 1 90 91
M  V30 84 1 91 92
M  V30 85 1 92 93
M  V30 86 1 89 94
M  V30 87 1 89 95
M  V30 88 1 90 96
M  V30 89 1 90 97
M  V30 90 1 92 98
M  V30 91 1 92 99
M  V30 92 1 93 100
M  V30 93 1 93 101
M  V30 94 1 102 103
M  V30 95 1 103 104
M  V30 96 1 104 105
M  V30 97 1 105 106
M  V30 98 1 102 107
M  V30 99 1 102 108
M  V30 100 1 103 109
M  V30 101 1 103 110
M  V30 102 1 105 111
M  V30 103 1 105 112
M  V30 104 1 106 113
M  V30 105 1 106 114
M  V30 106 1 1 89
M  V30 107 1 2 102
M  V30 108 1 5 76
M  V30 109 1 7 52
M  V30 110 1 18 60
M  V30 111 1 19 68
M  V30 112 1 22 70
M  V30 113 1 24 80
M  V30 114 1 35 93
M  V30 115 1 36 54
M  V30 116 1 39 62
M  V30 117 1 41 106
M  V30 END BOND
M  V30 END CTAB
M  END

$$$$
