
     RDKit          3D

  0  0  0  0  0  0  0  0  0  0999 V3000
M  V30 BEGIN CTAB
M  V30 COUNTS 114 117 0 0 0
M  V30 BEGIN ATOM
M  V30 1 C 2.5294 -1.4371 -1.3526 0
M  V30 2 C 2.5952 -1.4039 0.1607 0
M  V30 3 C 1.6527 -0.3428 0.7223 0
M  V30 4 O 0.3734 -0.6616 0.3208 0
M  V30 5 C -0.5964 0.2256 0.7632 0
M  V30 6 C -1.2146 0.9208 -0.3976 0
M  V30 7 C -2.2813 1.9057 0.0027 0
M  V30 8 H 3.1890 -2.2673 -1.6783 0
M  V30 9 H 2.8999 -0.4603 -1.7235 0
M  V30 10 H 2.2730 -2.4285 0.4861 0
M  V30 11 H 1.8041 -0.2806 1.8121 0
M  V30 12 H 1.9590 0.6116 0.2099 0
M  V30 13 H -0.0543 0.9992 1.3556 0
M  V30 14 H -0.4687 1.4426 -1.0117 0
M  V30 15 H -1.7301 0.2140 -1.1053 0
M  V30 16 H -1.8290 2.6301 0.7262 0
M  V30 17 H -2.6439 2.5099 -0.8441 0
M  V30 18 C 2.1580 -0.6188 -1.2228 0
M  V30 19 C 2.2238 -0.5857 0.2905 0
M  V30 20 C 1.2813 0.4754 0.8521 0
M  V30 21 O 0.0021 0.1566 0.4506 0
M  V30 22 C -0.9677 1.0438 0.8930 0
M  V30 23 C -1.5860 1.7390 -0.2678 0
M  V30 24 C -2.6526 2.7239 0.1325 0
M  V30 25 H 2.8177 -1.4491 -1.5485 0
M  V30 26 H 2.5286 0.3579 -1.5937 0
M  V30 27 H 1.9017 -1.6103 0.6159 0
M  V30 28 H 1.4328 0.5377 1.9419 0
M  V30 29 H 1.5876 1.4298 0.3397 0
M  V30 30 H -0.4256 1.8175 1.4854 0
M  V30 31 H -0.8401 2.2608 -0.8819 0
M  V30 32 H -2.1015 1.0322 -0.9755 0
M  V30 33 H -2.2004 3.4483 0.8560 0
M  V30 34 H -3.0152 3.3281 -0.7143 0
M  V30 35 C 1.6303 -1.3568 -1.2552 0
M  V30 36 C 1.6961 -1.3237 0.2581 0
M  V30 37 C 0.7536 -0.2626 0.8196 0
M  V30 38 O -0.5256 -0.5814 0.4182 0
M  V30 39 C -1.4955 0.3058 0.8606 0
M  V30 40 C -2.1137 1.0010 -0.3003 0
M  V30 41 C -3.1804 1.9859 0.1001 0
M  V30 42 H 2.2900 -2.1871 -1.5809 0
M  V30 43 H 2.0008 -0.3801 -1.6261 0
M  V30 44 H 1.3740 -2.3483 0.5834 0
M  V30 45 H 0.9050 -0.2003 1.9095 0
M  V30 46 H 1.0599 0.6918 0.3073 0
M  V30 47 H -0.9533 1.0795 1.4529 0
M  V30 48 H -1.3678 1.5228 -0.9144 0
M  V30 49 H -2.6292 0.2942 -1.0079 0
M  V30 50 H -2.7281 2.7103 0.8236 0
M  V30 51 H -3.5430 2.5901 -0.7467 0
M  V30 52 C 1.8045 0.3401 0.0502 0
M  V30 53 N 0.6494 -0.2275 -0.5706 0
M  V30 54 C -0.6054 0.3294 -0.1534 0
M  V30 55 H 1.8561 0.1521 1.1431 0
M  V30 56 H 2.7054 -0.1220 -0.3828 0
M  V30 57 H 0.6094 -1.2505 -0.3704 0
M  V30 58 H -0.8340 0.0433 0.8922 0
M  V30 59 H -1.3877 -0.1647 -0.7939 0
M  V30 60 C 0.9325 0.4179 0.1444 0
M  V30 61 N -0.2226 -0.1496 -0.4764 0
M  V30 62 C -1.4775 0.4072 -0.0592 0
M  V30 63 H 0.9841 0.2300 1.2374 0
M  V30 64 H 1.8333 -0.0442 -0.2885 0
M  V30 65 H -0.2627 -1.1727 -0.2762 0
M  V30 66 H -1.7060 0.1211 0.9864 0
M  V30 67 H -2.2598 -0.0869 -0.6996 0
M  V30 68 C 2.1595 -0.4499 -0.0749 0
M  V30 69 N 1.0044 -1.0174 -0.6957 0
M  V30 70 C -0.2504 -0.4606 -0.2785 0
M  V30 71 H 2.2111 -0.6378 1.0181 0
M  V30 72 H 3.0604 -0.9120 -0.5078 0
M  V30 73 H 0.9644 -2.0405 -0.4954 0
M  V30 74 H -0.4789 -0.7466 0.7671 0
M  V30 75 H -1.0327 -0.9547 -0.9189 0
M  V30 76 C -2.1863 1.0945 -0.1693 0
M  V30 77 C -1.4619 -0.0216 0.5258 0
M  V30 78 S 0.1807 0.4743 0.9847 0
M  V30 79 C 1.3311 0.7631 -0.3366 0
M  V30 80 C 2.6637 1.1497 0.3167 0
M  V30 81 H -2.3092 1.9777 0.5109 0
M  V30 82 H -3.2260 0.7484 -0.4618 0
M  V30 83 H -2.0470 -0.2348 1.4698 0
M  V30 84 H -1.5056 -0.9741 -0.0400 0
M  V30 85 H 1.0602 1.6639 -0.9233 0
M  V30 86 H 1.4783 -0.0821 -1.0341 0
M  V30 87 H 3.4655 1.2941 -0.4046 0
M  V30 88 H 2.9423 0.3559 1.0469 0
M  V30 89 C -2.3374 -0.4086 -0.3264 0
M  V30 90 C -1.6130 -1.5247 0.3687 0
M  V30 91 S 0.0296 -1.0289 0.8276 0
M  V30 92 C 1.1800 -0.7400 -0.4937 0
M  V30 93 C 2.5126 -0.3535 0.1596 0
M  V30 94 H -2.4603 0.4746 0.3539 0
M  V30 95 H -3.3771 -0.7548 -0.6189 0
M  V30 96 H -2.1981 -1.7379 1.3127 0
M  V30 97 H -1.6567 -2.4773 -0.1970 0
M  V30 98 H 0.9091 0.1607 -1.0804 0
M  V30 99 H 1.3272 -1.5852 -1.1911 0
M  V30 100 H 3.3144 -0.2090 -0.5616 0
M  V30 101 H 2.7912 -1.1473 0.8899 0
M  V30 102 C -3.2036 -0.3282 -0.2317 0
M  V30 103 C -2.4792 -1.4443 0.4633 0
M  V30 104 S -0.8367 -0.9484 0.9222 0
M  V30 105 C 0.3137 -0.6596 -0.3990 0
M  V30 106 C 1.6464 -0.2730 0.2543 0
M  V30 107 H -3.3265 0.5550 0.4485 0
M  V30 108 H -4.2434 -0.6743 -0.5243 0
M  V30 109 H -3.0644 -1.6575 1.4074 0
M  V30 110 H -2.5229 -2.3968 -0.1024 0
M  V30 111 H 0.0429 0.2412 -0.9858 0
M  V30 112 H 0.4610 -1.5048 -1.0965 0
M  V30 113 H 2.4482 -0.1286 -0.4670 0
M  V30 114 H 1.9249 -1.0668 0.9845 0
M  V30 END ATOM
M  V30 BEGIN BOND
M  V30 1 1 1 2
M  V30 2 1 2 3
M  V30 3 1 3 4
M  V30 4 1 4 5
M  V30 5 1 5 6
M  V30 6 1 6 7
M  V30 7 1 1 8
M  V30 8 1 1 9
M  V30 9 1 2 10
M  V30 10 1 3 11
M  V30 11 1 3 12
M  V30 12 1 5 13
M  V30 13 1 6 14
M  V30 14 1 6 15
M  V30 15 1 7 16
M  V30 16 1 7 17
M  V30 17 1 18 19
M  V30 18 1 19 20
M  V30 19 1 20 21
M  V30 20 1 21 22
M  V30 21 1 22 23
M  V30 22 1 23 24
M  V30 23 1 18 25
M  V30 24 1 18 26
M  V30 25 1 19 27
M  V30 26 1 20 28
M  V30 27 1 20 29
M  V30 28 1 22 30
M  V30 29 1 23 31
M  V30 30 1 23 32
M  V30 31 1 24 33
M  V30 32 1 24 34
M  V30 33 1 35 36
M  V30 34 1 36 37
M  V30 35 1 37 38
M  V30 36 1 38 39
M  V30 37 1 39 40
M  V30 38 1 40 41
M  V30 39 1 35 42
M  V30 40 1 35 43
M  V30 41 1 36 44
M  V30 42 1 37 45
M  V30 43 1 37 46
M  V30 44 1 39 47
M  V30 45 1 40 48
M  V30 46 1 40 49
M  V30 47 1 41 50
M  V30 48 1 41 51
M  V30 49 1 52 53
M  V30 50 1 53 54
M  V30 51 1 52 55
M  V30 52 1 52 56
M  V30 53 1 53 57
M  V30 54 1 54 58
M  V30 55 1 54 59
M  V30 56 1 60 61
M  V30 57 1 61 62
M  V30 58 1 60 63
M  V30 59 1 60 64
M  V30 60 1 61 65
M  V30 61 1 62 66
M  V30 62 1 62 67
M  V30 63 1 68 69
M  V30 64 1 69 70
M  V30 65 1 68 71
M  V30 66 1 68 72
M  V30 67 1 69 73
M  V30 68 1 70 74
M  V30 69 1 70 75
M  V30 70 1 76 77
M  V30 71 1 77 78
M  V30 72 1 78 79
M  V30 73 1 79 80
M  V30 74 1 76 81
M  V30 75 1 76 82
M  V30 76 1 77 83
M  V30 77 1 77 84
M  V30 78 1 79 85
M  V30 79 1 79 86
M  V30 80 1 80 87
M  V30 81 1 80 88
M  V30 82 1 89 90
M  V30 83 1 90 91
M  V30 84 1 91 92
M  V30 85 1 92 93
M  V30 86 1 89 94
M  V30 87 1 89 95
M  V30 88 1 90 96
M  V30 89 1 90 97
M  V30 90 1 92 98
M  V30 91 1 92 99
M  V30 92 1 93 100
M  V30 93 1 93 101
M  V30 94 1 102 103
M  V30 95 1 103 104
M  V30 96 1 104 105
M  V30 97 1 105 106
M  V30 98 1 102 107
M  V30 99 1 102 108
M  V30 100 1 103 109
M  V30 101 1 103 110
M  V30 102 1 105 111
M  V30 103 1 105 112
M  V30 104 1 106 113
M  V30 105 1 106 114
M  V30 106 1 1 52
M  V30 107 1 2 89
M  V30 108 1 5 68
M  V30 109 1 7 70
M  V30 110 1 18 54
M  V30 111 1 19 60
M  V30 112 1 22 76
M  V30 113 1 24 80
M  V30 114 1 35 102
M  V30 115 1 36 62
M  V30 116 1 39 93
M  V30 117 1 41 106
M  V30 END BOND
M  V30 END CTAB
M  END

$$$$
