
     RDKit          3D

  0  0  0  0  0  0  0  0  0  0999 V3000
M  V30 BEGIN CTAB
M  V30 COUNTS 114 117 0 0 0
M  V30 BEGIN ATOM
M  V30 1 C -2.3745 2.2513 -0.0224 0
M  V30 2 C -1.7034 2.5295 -1.3520 0
M  V30 3 C -0.2490 2.9458 -1.1497 0
M  V30 4 O 0.3996 1.9114 -0.5106 0
M  V30 5 C 1.7420 2.1537 -0.2600 0
M  V30 6 C 1.9816 2.2096 1.2072 0
M  V30 7 C 3.4218 2.4713 1.5615 0
M  V30 8 H -3.3999 1.8980 -0.2552 0
M  V30 9 H -2.3967 3.2033 0.5451 0
M  V30 10 H -1.7608 1.5592 -1.9128 0
M  V30 11 H 0.1719 3.2359 -2.1261 0
M  V30 12 H -0.2980 3.8236 -0.4465 0
M  V30 13 H 1.9482 3.1727 -0.6630 0
M  V30 14 H 1.3566 2.9666 1.6992 0
M  V30 15 H 1.7309 1.2437 1.7271 0
M  V30 16 H 3.7360 3.4183 1.0543 0
M  V30 17 H 3.5721 2.6408 2.6395 0
M  V30 18 C -1.5653 -4.0447 -0.0182 0
M  V30 19 C -2.0742 -3.5290 -1.3489 0
M  V30 20 C -3.0060 -2.3368 -1.1489 0
M  V30 21 O -2.2910 -1.3465 -0.5108 0
M  V30 22 C -3.0195 -0.1928 -0.2623 0
M  V30 23 C -3.1620 0.0105 1.2045 0
M  V30 24 C -3.9452 1.2477 1.5565 0
M  V30 25 H -0.8529 -4.8630 -0.2494 0
M  V30 26 H -2.4397 -4.4217 0.5493 0
M  V30 27 H -1.1529 -3.2189 -1.9096 0
M  V30 28 H -3.4322 -2.0570 -2.1259 0
M  V30 29 H -3.8016 -2.7106 -0.4456 0
M  V30 30 H -4.0411 -0.3846 -0.6656 0
M  V30 31 H -3.6295 -0.8521 1.6975 0
M  V30 32 H -2.1730 0.1414 1.7248 0
M  V30 33 H -4.9406 1.1829 1.0488 0
M  V30 34 H -4.1594 1.3251 2.6343 0
M  V30 35 C 0.2367 -3.7034 -0.0182 0
M  V30 36 C 0.8569 -3.3287 1.3124 0
M  V30 37 C 2.0533 -2.4024 1.1124 0
M  V30 38 O 1.6039 -1.2666 0.4743 0
M  V30 39 C 2.5938 -0.3276 0.2258 0
M  V30 40 C 2.7820 -0.1656 -1.2409 0
M  V30 41 C 3.8455 0.8409 -1.5929 0
M  V30 42 H -0.6551 -4.3212 0.2129 0
M  V30 43 H 0.9916 -4.2839 -0.5858 0
M  V30 44 H 0.0402 -2.8015 1.8732 0
M  V30 45 H 2.5353 -2.2360 2.0894 0
M  V30 46 H 2.7325 -2.9605 0.4092 0
M  V30 47 H 3.5369 -0.7649 0.6292 0
M  V30 48 H 3.0229 -1.1167 -1.7339 0
M  V30 49 H 1.8555 0.2046 -1.7613 0
M  V30 50 H 4.7944 0.5332 -1.0853 0
M  V30 51 H 4.0722 0.8632 -2.6707 0
M  V30 52 C -2.6160 2.0546 0.9990 0
M  V30 53 N -3.6625 1.4046 0.2750 0
M  V30 54 C -3.3120 0.9656 -1.0453 0
M  V30 55 H -2.2974 3.0171 0.5465 0
M  V30 56 H -2.9789 2.2970 2.0099 0
M  V30 57 H -4.4749 2.0513 0.1746 0
M  V30 58 H -3.1687 1.8310 -1.7219 0
M  V30 59 H -4.2105 0.4088 -1.4313 0
M  V30 60 C -1.9557 -3.7333 -0.0224 0
M  V30 61 N -0.8528 -4.4486 0.5376 0
M  V30 62 C 0.4312 -4.1231 -0.0141 0
M  V30 63 H -2.1342 -3.9643 -1.0935 0
M  V30 64 H -2.8753 -4.0218 0.5103 0
M  V30 65 H -0.9917 -5.4733 0.3998 0
M  V30 66 H 0.5171 -4.4937 -1.0545 0
M  V30 67 H 1.1808 -4.7048 0.5910 0
M  V30 68 C -1.9557 -3.7333 -0.0224 0
M  V30 69 N -0.8528 -4.4486 0.5376 0
M  V30 70 C 0.4312 -4.1231 -0.0141 0
M  V30 71 H -2.1342 -3.9643 -1.0935 0
M  V30 72 H -2.8753 -4.0218 0.5103 0
M  V30 73 H -0.9917 -5.4733 0.3998 0
M  V30 74 H 0.5171 -4.4937 -1.0545 0
M  V30 75 H 1.1808 -4.7048 0.5910 0
M  V30 76 C 4.1995 3.7424 -5.1500 0
M  V30 77 C 3.7710 3.0067 -6.3864 0
M  V30 78 S 2.6821 1.6631 -5.9823 0
M  V30 79 C 3.3853 0.3011 -5.0860 0
M  V30 80 C 2.2604 -0.7221 -4.8864 0
M  V30 81 H 3.3182 4.2043 -4.6326 0
M  V30 82 H 4.9023 4.5860 -5.4344 0
M  V30 83 H 3.1983 3.7540 -7.0129 0
M  V30 84 H 4.6281 2.7174 -7.0275 0
M  V30 85 H 3.6572 0.5911 -4.0511 0
M  V30 86 H 4.2604 -0.1806 -5.5598 0
M  V30 87 H 2.5956 -1.6330 -4.3945 0
M  V30 88 H 1.8210 -0.9623 -5.8815 0
M  V30 89 C 4.0355 3.8027 5.1703 0
M  V30 90 C 4.5403 2.7237 6.0838 0
M  V30 91 S 4.1764 1.1135 5.4288 0
M  V30 92 C 2.4664 0.6391 5.3675 0
M  V30 93 C 2.4244 -0.7824 4.7932 0
M  V30 94 H 4.5442 3.7533 4.1720 0
M  V30 95 H 4.2696 4.8187 5.6168 0
M  V30 96 H 5.6638 2.8471 6.1234 0
M  V30 97 H 4.2154 2.8692 7.1338 0
M  V30 98 H 1.9044 1.2358 4.6211 0
M  V30 99 H 1.9258 0.6782 6.3311 0
M  V30 100 H 1.4202 -1.2007 4.7647 0
M  V30 101 H 3.0931 -1.4302 5.4049 0
M  V30 102 C -2.5461 3.9111 0.0192 0
M  V30 103 C -3.8575 3.3439 0.4798 0
M  V30 104 S -3.7182 1.6041 0.8084 0
M  V30 105 C -3.4387 0.5429 -0.5874 0
M  V30 106 C -3.3819 -0.8909 -0.0458 0
M  V30 107 H -1.7633 3.8092 0.8159 0
M  V30 108 H -2.6655 5.0185 -0.1950 0
M  V30 109 H -4.1038 3.8716 1.4493 0
M  V30 110 H -4.6965 3.6114 -0.1940 0
M  V30 111 H -2.4296 0.6958 -1.0201 0
M  V30 112 H -4.1861 0.6156 -1.3989 0
M  V30 113 H -3.2716 -1.6379 -0.8292 0
M  V30 114 H -4.3089 -1.0836 0.5410 0
M  V30 END ATOM
M  V30 BEGIN BOND
M  V30 1 1 1 2
M  V30 2 1 2 3
M  V30 3 1 3 4
M  V30 4 1 4 5
M  V30 5 1 5 6
M  V30 6 1 6 7
M  V30 7 1 1 8
M  V30 8 1 1 9
M  V30 9 1 2 10
M  V30 10 1 3 11
M  V30 11 1 3 12
M  V30 12 1 5 13
M  V30 13 1 6 14
M  V30 14 1 6 15
M  V30 15 1 7 16
M  V30 16 1 7 17
M  V30 17 1 18 19
M  V30 18 1 19 20
M  V30 19 1 20 21
M  V30 20 1 21 22
M  V30 21 1 22 23
M  V30 22 1 23 24
M  V30 23 1 18 25
M  V30 24 1 18 26
M  V30 25 1 19 27
M  V30 26 1 20 28
M  V30 27 1 20 29
M  V30 28 1 22 30
M  V30 29 1 23 31
M  V30 30 1 23 32
M  V30 31 1 24 33
M  V30 32 1 24 34
M  V30 33 1 35 36
M  V30 34 1 36 37
M  V30 35 1 37 38
M  V30 36 1 38 39
M  V30 37 1 39 40
M  V30 38 1 40 41
M  V30 39 1 35 42
M  V30 40 1 35 43
M  V30 41 1 36 44
M  V30 42 1 37 45
M  V30 43 1 37 46
M  V30 44 1 39 47
M  V30 45 1 40 48
M  V30 46 1 40 49
M  V30 47 1 41 50
M  V30 48 1 41 51
M  V30 49 1 52 53
M  V30 50 1 53 54
M  V30 51 1 52 55
M  V30 52 1 52 56
M  V30 53 1 53 57
M  V30 54 1 54 58
M  V30 55 1 54 59
M  V30 56 1 60 61
M  V30 57 1 61 62
M  V30 58 1 60 63
M  V30 59 1 60 64
M  V30 60 1 61 65
M  V30 61 1 62 66
M  V30 62 1 62 67
M  V30 63 1 68 69
M  V30 64 1 69 70
M  V30 65 1 68 71
M  V30 66 1 68 72
M  V30 67 1 69 73
M  V30 68 1 70 74
M  V30 69 1 70 75
M  V30 70 1 76 77
M  V30 71 1 77 78
M  V30 72 1 78 79
M  V30 73 1 79 80
M  V30 74 1 76 81
M  V30 75 1 76 82
M  V30 76 1 77 83
M  V30 77 1 77 84
M  V30 78 1 79 85
M  V30 79 1 79 86
M  V30 80 1 80 87
M  V30 81 1 80 88
M  V30 82 1 89 90
M  V30 83 1 90 91
M  V30 84 1 91 92
M  V30 85 1 92 93
M  V30 86 1 89 94
M  V30 87 1 89 95
M  V30 88 1 90 96
M  V30 89 1 90 97
M  V30 90 1 92 98
M  V30 91 1 92 99
M  V30 92 1 93 100
M  V30 93 1 93 101
M  V30 94 1 102 103
M  V30 95 1 103 104
M  V30 96 1 104 105
M  V30 97 1 105 106
M  V30 98 1 102 107
M  V30 99 1 102 108
M  V30 100 1 103 109
M  V30 101 1 103 110
M  V30 102 1 105 111
M  V30 103 1 105 112
M  V30 104 1 106 113
M  V30 105 1 106 114
M  V30 106 1 1 52
M  V30 107 1 2 102
M  V30 108 1 5 76
M  V30 109 1 7 89
M  V30 110 1 18 68
M  V30 111 1 22 106
M  V30 112 1 19 60
M  V30 113 1 24 54
M  V30 114 1 35 62
M  V30 115 1 41 80
M  V30 116 1 36 70
M  V30 117 1 39 93
M  V30 END BOND
M  V30 END CTAB
M  END

$$$$
