
     RDKit          3D

  0  0  0  0  0  0  0  0  0  0999 V3000
M  V30 BEGIN CTAB
M  V30 COUNTS 114 117 0 0 0
M  V30 BEGIN ATOM
M  V30 1 C 2.1597 -1.1631 -1.3011 0
M  V30 2 C 2.2255 -1.1300 0.2122 0
M  V30 3 C 1.2830 -0.0689 0.7737 0
M  V30 4 O 0.0038 -0.3876 0.3723 0
M  V30 5 C -0.9660 0.4996 0.8147 0
M  V30 6 C -1.5843 1.1948 -0.3462 0
M  V30 7 C -2.6509 2.1797 0.0542 0
M  V30 8 H 2.8194 -1.9933 -1.6268 0
M  V30 9 H 2.5303 -0.1864 -1.6720 0
M  V30 10 H 1.9034 -2.1545 0.5375 0
M  V30 11 H 1.4345 -0.0066 1.8635 0
M  V30 12 H 1.5893 0.8856 0.2613 0
M  V30 13 H -0.4239 1.2732 1.4070 0
M  V30 14 H -0.8384 1.7166 -0.9603 0
M  V30 15 H -2.0998 0.4880 -1.0538 0
M  V30 16 H -2.1987 2.9041 0.7776 0
M  V30 17 H -3.0135 2.7839 -0.7926 0
M  V30 18 C -1.4562 -0.6791 -1.1849 0
M  V30 19 C -1.3904 -0.6460 0.3284 0
M  V30 20 C -2.3329 0.4151 0.8899 0
M  V30 21 O -3.6121 0.0963 0.4885 0
M  V30 22 C -4.5820 0.9836 0.9309 0
M  V30 23 C -5.2002 1.6787 -0.2300 0
M  V30 24 C -6.2669 2.6637 0.1704 0
M  V30 25 H -0.7965 -1.5094 -1.5106 0
M  V30 26 H -1.0857 0.2976 -1.5558 0
M  V30 27 H -1.7126 -1.6706 0.6537 0
M  V30 28 H -2.1815 0.4774 1.9798 0
M  V30 29 H -2.0266 1.3695 0.3776 0
M  V30 30 H -4.0399 1.7572 1.5232 0
M  V30 31 H -4.4543 2.2005 -0.8441 0
M  V30 32 H -5.7157 0.9719 -0.9376 0
M  V30 33 H -5.8146 3.3880 0.8939 0
M  V30 34 H -6.6295 3.2678 -0.6764 0
M  V30 35 C 5.7527 -1.6129 -1.4263 0
M  V30 36 C 5.8185 -1.5798 0.0870 0
M  V30 37 C 4.8759 -0.5187 0.6485 0
M  V30 38 O 3.5967 -0.8374 0.2471 0
M  V30 39 C 2.6269 0.0498 0.6895 0
M  V30 40 C 2.0087 0.7450 -0.4713 0
M  V30 41 C 0.9420 1.7299 -0.0710 0
M  V30 42 H 6.4123 -2.4431 -1.7520 0
M  V30 43 H 6.1232 -0.6362 -1.7972 0
M  V30 44 H 5.4963 -2.6043 0.4124 0
M  V30 45 H 5.0274 -0.4564 1.7384 0
M  V30 46 H 5.1822 0.4358 0.1362 0
M  V30 47 H 3.1690 0.8234 1.2819 0
M  V30 48 H 2.7546 1.2668 -1.0854 0
M  V30 49 H 1.4931 0.0382 -1.1790 0
M  V30 50 H 1.3943 2.4543 0.6525 0
M  V30 51 H 0.5794 2.3341 -0.9178 0
M  V30 52 C 3.2633 -0.2918 -0.6673 0
M  V30 53 N 2.1082 -0.8593 -1.2881 0
M  V30 54 C 0.8534 -0.3025 -0.8708 0
M  V30 55 H 3.3149 -0.4797 0.4257 0
M  V30 56 H 4.1642 -0.7539 -1.1002 0
M  V30 57 H 2.0682 -1.8824 -1.0878 0
M  V30 58 H 0.6248 -0.5886 0.1747 0
M  V30 59 H 0.0710 -0.7966 -1.5113 0
M  V30 60 C -3.6131 0.7762 0.2070 0
M  V30 61 N -4.7682 0.2087 -0.4138 0
M  V30 62 C -6.0231 0.7655 0.0034 0
M  V30 63 H -3.5615 0.5883 1.3000 0
M  V30 64 H -2.7123 0.3141 -0.2259 0
M  V30 65 H -4.8083 -0.8144 -0.2135 0
M  V30 66 H -6.2516 0.4794 1.0490 0
M  V30 67 H -6.8054 0.2714 -0.6370 0
M  V30 68 C 6.3789 -0.5167 -0.1285 0
M  V30 69 N 5.2238 -1.0842 -0.7493 0
M  V30 70 C 3.9690 -0.5274 -0.3321 0
M  V30 71 H 6.4305 -0.7046 0.9645 0
M  V30 72 H 7.2798 -0.9788 -0.5614 0
M  V30 73 H 5.1838 -2.1073 -0.5490 0
M  V30 74 H 3.7404 -0.8134 0.7135 0
M  V30 75 H 3.1866 -1.0215 -0.9725 0
M  V30 76 C -4.2250 -0.2389 0.1059 0
M  V30 77 C -3.5005 -1.3550 0.8009 0
M  V30 78 S -1.8580 -0.8592 1.2598 0
M  V30 79 C -0.7076 -0.5703 -0.0614 0
M  V30 80 C 0.6251 -0.1838 0.5919 0
M  V30 81 H -4.3478 0.6443 0.7861 0
M  V30 82 H -5.2647 -0.5851 -0.1867 0
M  V30 83 H -4.0857 -1.5682 1.7450 0
M  V30 84 H -3.5442 -2.3076 0.2352 0
M  V30 85 H -0.9785 0.3304 -0.6482 0
M  V30 86 H -0.5603 -1.4155 -0.7589 0
M  V30 87 H 1.4269 -0.0393 -0.1294 0
M  V30 88 H 0.9036 -0.9776 1.3221 0
M  V30 89 C -0.2849 -0.0239 0.2856 0
M  V30 90 C 0.4395 -1.1400 0.9806 0
M  V30 91 S 2.0821 -0.6442 1.4395 0
M  V30 92 C 3.2325 -0.3553 0.1182 0
M  V30 93 C 4.5651 0.0312 0.7716 0
M  V30 94 H -0.4078 0.8593 0.9658 0
M  V30 95 H -1.3246 -0.3700 -0.0070 0
M  V30 96 H -0.1456 -1.3532 1.9246 0
M  V30 97 H 0.3958 -2.0926 0.4149 0
M  V30 98 H 2.9616 0.5455 -0.4685 0
M  V30 99 H 3.3797 -1.2005 -0.5792 0
M  V30 100 H 5.3669 0.1757 0.0503 0
M  V30 101 H 4.8437 -0.7626 1.5018 0
M  V30 102 C -4.0955 0.8853 -0.5759 0
M  V30 103 C -3.3710 -0.2307 0.1191 0
M  V30 104 S -1.7285 0.2651 0.5780 0
M  V30 105 C -0.5781 0.5539 -0.7433 0
M  V30 106 C 0.7546 0.9405 -0.0899 0
M  V30 107 H -4.2183 1.7686 0.1043 0
M  V30 108 H -5.1352 0.5392 -0.8685 0
M  V30 109 H -3.9562 -0.4439 1.0631 0
M  V30 110 H -3.4147 -1.1833 -0.4466 0
M  V30 111 H -0.8490 1.4547 -1.3300 0
M  V30 112 H -0.4308 -0.2912 -1.4407 0
M  V30 113 H 1.5564 1.0850 -0.8112 0
M  V30 114 H 1.0331 0.1467 0.6403 0
M  V30 END ATOM
M  V30 BEGIN BOND
M  V30 1 1 1 2
M  V30 2 1 2 3
M  V30 3 1 3 4
M  V30 4 1 4 5
M  V30 5 1 5 6
M  V30 6 1 6 7
M  V30 7 1 1 8
M  V30 8 1 1 9
M  V30 9 1 2 10
M  V30 10 1 3 11
M  V30 11 1 3 12
M  V30 12 1 5 13
M  V30 13 1 6 14
M  V30 14 1 6 15
M  V30 15 1 7 16
M  V30 16 1 7 17
M  V30 17 1 18 19
M  V30 18 1 19 20
M  V30 19 1 20 21
M  V30 20 1 21 22
M  V30 21 1 22 23
M  V30 22 1 23 24
M  V30 23 1 18 25
M  V30 24 1 18 26
M  V30 25 1 19 27
M  V30 26 1 20 28
M  V30 27 1 20 29
M  V30 28 1 22 30
M  V30 29 1 23 31
M  V30 30 1 23 32
M  V30 31 1 24 33
M  V30 32 1 24 34
M  V30 33 1 35 36
M  V30 34 1 36 37
M  V30 35 1 37 38
M  V30 36 1 38 39
M  V30 37 1 39 40
M  V30 38 1 40 41
M  V30 39 1 35 42
M  V30 40 1 35 43
M  V30 41 1 36 44
M  V30 42 1 37 45
M  V30 43 1 37 46
M  V30 44 1 39 47
M  V30 45 1 40 48
M  V30 46 1 40 49
M  V30 47 1 41 50
M  V30 48 1 41 51
M  V30 49 1 52 53
M  V30 50 1 53 54
M  V30 51 1 52 55
M  V30 52 1 52 56
M  V30 53 1 53 57
M  V30 54 1 54 58
M  V30 55 1 54 59
M  V30 56 1 60 61
M  V30 57 1 61 62
M  V30 58 1 60 63
M  V30 59 1 60 64
M  V30 60 1 61 65
M  V30 61 1 62 66
M  V30 62 1 62 67
M  V30 63 1 68 69
M  V30 64 1 69 70
M  V30 65 1 68 71
M  V30 66 1 68 72
M  V30 67 1 69 73
M  V30 68 1 70 74
M  V30 69 1 70 75
M  V30 70 1 76 77
M  V30 71 1 77 78
M  V30 72 1 78 79
M  V30 73 1 79 80
M  V30 74 1 76 81
M  V30 75 1 76 82
M  V30 76 1 77 83
M  V30 77 1 77 84
M  V30 78 1 79 85
M  V30 79 1 79 86
M  V30 80 1 80 87
M  V30 81 1 80 88
M  V30 82 1 89 90
M  V30 83 1 90 91
M  V30 84 1 91 92
M  V30 85 1 92 93
M  V30 86 1 89 94
M  V30 87 1 89 95
M  V30 88 1 90 96
M  V30 89 1 90 97
M  V30 90 1 92 98
M  V30 91 1 92 99
M  V30 92 1 93 100
M  V30 93 1 93 101
M  V30 94 1 102 103
M  V30 95 1 103 104
M  V30 96 1 104 105
M  V30 97 1 105 106
M  V30 98 1 102 107
M  V30 99 1 102 108
M  V30 100 1 103 109
M  V30 101 1 103 110
M  V30 102 1 105 111
M  V30 103 1 105 112
M  V30 104 1 106 113
M  V30 105 1 106 114
M  V30 106 1 1 52
M  V30 107 1 2 76
M  V30 108 1 5 89
M  V30 109 1 7 102
M  V30 110 1 18 80
M  V30 111 1 19 60
M  V30 112 1 22 62
M  V30 113 1 24 106
M  V30 114 1 35 93
M  V30 115 1 36 68
M  V30 116 1 39 70
M  V30 117 1 41 54
M  V30 END BOND
M  V30 END CTAB
M  END

$$$$
