
     RDKit          3D

  0  0  0  0  0  0  0  0  0  0999 V3000
M  V30 BEGIN CTAB
M  V30 COUNTS 114 117 0 0 0
M  V30 BEGIN ATOM
M  V30 1 C 2.4562 -1.1066 -1.0131 0
M  V30 2 C 2.5220 -1.0734 0.5002 0
M  V30 3 C 1.5795 -0.0123 1.0617 0
M  V30 4 O 0.3003 -0.3311 0.6603 0
M  V30 5 C -0.6696 0.5561 1.1027 0
M  V30 6 C -1.2878 1.2513 -0.0581 0
M  V30 7 C -2.3545 2.2362 0.3422 0
M  V30 8 H 3.1159 -1.9368 -1.3388 0
M  V30 9 H 2.8268 -0.1298 -1.3840 0
M  V30 10 H 2.1999 -2.0980 0.8255 0
M  V30 11 H 1.7309 0.0499 2.1516 0
M  V30 12 H 1.8858 0.9421 0.5494 0
M  V30 13 H -0.1274 1.3297 1.6950 0
M  V30 14 H -0.5419 1.7731 -0.6722 0
M  V30 15 H -1.8033 0.5445 -0.7658 0
M  V30 16 H -1.9022 2.9606 1.0657 0
M  V30 17 H -2.7171 2.8404 -0.5046 0
M  V30 18 C 1.4906 -0.8078 -1.1706 0
M  V30 19 C 1.5564 -0.7747 0.3427 0
M  V30 20 C 0.6138 0.2864 0.9043 0
M  V30 21 O -0.6654 -0.0324 0.5028 0
M  V30 22 C -1.6352 0.8549 0.9452 0
M  V30 23 C -2.2534 1.5500 -0.2156 0
M  V30 24 C -3.3201 2.5350 0.1847 0
M  V30 25 H 2.1502 -1.6381 -1.4963 0
M  V30 26 H 1.8611 0.1689 -1.5415 0
M  V30 27 H 1.2342 -1.7993 0.6681 0
M  V30 28 H 0.7653 0.3487 1.9941 0
M  V30 29 H 0.9202 1.2408 0.3919 0
M  V30 30 H -1.0931 1.6285 1.5376 0
M  V30 31 H -1.5075 2.0718 -0.8297 0
M  V30 32 H -2.7690 0.8432 -0.9233 0
M  V30 33 H -2.8678 3.2594 0.9082 0
M  V30 34 H -3.6827 3.1391 -0.6621 0
M  V30 35 C 2.1864 -1.4599 -1.5410 0
M  V30 36 C 2.2522 -1.4268 -0.0277 0
M  V30 37 C 1.3097 -0.3657 0.5338 0
M  V30 38 O 0.0305 -0.6845 0.1324 0
M  V30 39 C -0.9394 0.2028 0.5748 0
M  V30 40 C -1.5576 0.8979 -0.5861 0
M  V30 41 C -2.6243 1.8829 -0.1857 0
M  V30 42 H 2.8461 -2.2902 -1.8667 0
M  V30 43 H 2.5569 -0.4832 -1.9119 0
M  V30 44 H 1.9300 -2.4514 0.2976 0
M  V30 45 H 1.4611 -0.3034 1.6237 0
M  V30 46 H 1.6160 0.5887 0.0215 0
M  V30 47 H -0.3973 0.9764 1.1671 0
M  V30 48 H -0.8117 1.4197 -1.2002 0
M  V30 49 H -2.0731 0.1911 -1.2937 0
M  V30 50 H -2.1720 2.6072 0.5378 0
M  V30 51 H -2.9869 2.4870 -1.0325 0
M  V30 52 C 0.2671 0.7210 0.2363 0
M  V30 53 N -0.8880 0.1534 -0.3845 0
M  V30 54 C -2.1428 0.7103 0.0327 0
M  V30 55 H 0.3187 0.5330 1.3292 0
M  V30 56 H 1.1680 0.2589 -0.1967 0
M  V30 57 H -0.9280 -0.8696 -0.1843 0
M  V30 58 H -2.3714 0.4242 1.0783 0
M  V30 59 H -2.9251 0.2162 -0.6078 0
M  V30 60 C 1.2276 0.4987 0.4761 0
M  V30 61 N 0.0725 -0.0689 -0.1447 0
M  V30 62 C -1.1823 0.4879 0.2725 0
M  V30 63 H 1.2792 0.3107 1.5690 0
M  V30 64 H 2.1285 0.0365 0.0432 0
M  V30 65 H 0.0325 -1.0920 0.0555 0
M  V30 66 H -1.4109 0.2019 1.3181 0
M  V30 67 H -1.9646 -0.0062 -0.3680 0
M  V30 68 C 1.4741 -0.3860 0.3601 0
M  V30 69 N 0.3190 -0.9535 -0.2607 0
M  V30 70 C -0.9358 -0.3967 0.1565 0
M  V30 71 H 1.5257 -0.5739 1.4531 0
M  V30 72 H 2.3750 -0.8481 -0.0728 0
M  V30 73 H 0.2790 -1.9766 -0.0605 0
M  V30 74 H -1.1644 -0.6827 1.2021 0
M  V30 75 H -1.7181 -0.8908 -0.4839 0
M  V30 76 C -1.8546 0.2408 -0.5802 0
M  V30 77 C -1.1302 -0.8753 0.1148 0
M  V30 78 S 0.5124 -0.3794 0.5737 0
M  V30 79 C 1.6627 -0.0906 -0.7476 0
M  V30 80 C 2.9954 0.2960 -0.0942 0
M  V30 81 H -1.9775 1.1240 0.1000 0
M  V30 82 H -2.8944 -0.1053 -0.8728 0
M  V30 83 H -1.7153 -1.0884 1.0588 0
M  V30 84 H -1.1739 -1.8278 -0.4509 0
M  V30 85 H 1.3919 0.8102 -1.3343 0
M  V30 86 H 1.8100 -0.9358 -1.4450 0
M  V30 87 H 3.7972 0.4404 -0.8155 0
M  V30 88 H 3.2739 -0.4978 0.6360 0
M  V30 89 C -1.6947 -0.2668 -0.3222 0
M  V30 90 C -0.9702 -1.3828 0.3729 0
M  V30 91 S 0.6723 -0.8870 0.8318 0
M  V30 92 C 1.8227 -0.5982 -0.4895 0
M  V30 93 C 3.1554 -0.2116 0.1638 0
M  V30 94 H -1.8175 0.6165 0.3581 0
M  V30 95 H -2.7344 -0.6129 -0.6147 0
M  V30 96 H -1.5554 -1.5960 1.3169 0
M  V30 97 H -1.0139 -2.3354 -0.1929 0
M  V30 98 H 1.5518 0.3026 -1.0762 0
M  V30 99 H 1.9700 -1.4433 -1.1869 0
M  V30 100 H 3.9572 -0.0671 -0.5574 0
M  V30 101 H 3.4339 -1.0054 0.8941 0
M  V30 102 C -2.7504 0.0099 -0.5497 0
M  V30 103 C -2.0260 -1.1061 0.1453 0
M  V30 104 S -0.3835 -0.6103 0.6042 0
M  V30 105 C 0.7669 -0.3215 -0.7170 0
M  V30 106 C 2.0996 0.0651 -0.0637 0
M  V30 107 H -2.8733 0.8931 0.1305 0
M  V30 108 H -3.7902 -0.3362 -0.8423 0
M  V30 109 H -2.6112 -1.3193 1.0894 0
M  V30 110 H -2.0697 -2.0587 -0.4204 0
M  V30 111 H 0.4960 0.5793 -1.3038 0
M  V30 112 H 0.9142 -1.1666 -1.4145 0
M  V30 113 H 2.9014 0.2095 -0.7850 0
M  V30 114 H 2.3781 -0.7287 0.6665 0
M  V30 END ATOM
M  V30 BEGIN BOND
M  V30 1 1 1 2
M  V30 2 1 2 3
M  V30 3 1 3 4
M  V30 4 1 4 5
M  V30 5 1 5 6
M  V30 6 1 6 7
M  V30 7 1 1 8
M  V30 8 1 1 9
M  V30 9 1 2 10
M  V30 10 1 3 11
M  V30 11 1 3 12
M  V30 12 1 5 13
M  V30 13 1 6 14
M  V30 14 1 6 15
M  V30 15 1 7 16
M  V30 16 1 7 17
M  V30 17 1 18 19
M  V30 18 1 19 20
M  V30 19 1 20 21
M  V30 20 1 21 22
M  V30 21 1 22 23
M  V30 22 1 23 24
M  V30 23 1 18 25
M  V30 24 1 18 26
M  V30 25 1 19 27
M  V30 26 1 20 28
M  V30 27 1 20 29
M  V30 28 1 22 30
M  V30 29 1 23 31
M  V30 30 1 23 32
M  V30 31 1 24 33
M  V30 32 1 24 34
M  V30 33 1 35 36
M  V30 34 1 36 37
M  V30 35 1 37 38
M  V30 36 1 38 39
M  V30 37 1 39 40
M  V30 38 1 40 41
M  V30 39 1 35 42
M  V30 40 1 35 43
M  V30 41 1 36 44
M  V30 42 1 37 45
M  V30 43 1 37 46
M  V30 44 1 39 47
M  V30 45 1 40 48
M  V30 46 1 40 49
M  V30 47 1 41 50
M  V30 48 1 41 51
M  V30 49 1 52 53
M  V30 50 1 53 54
M  V30 51 1 52 55
M  V30 52 1 52 56
M  V30 53 1 53 57
M  V30 54 1 54 58
M  V30 55 1 54 59
M  V30 56 1 60 61
M  V30 57 1 61 62
M  V30 58 1 60 63
M  V30 59 1 60 64
M  V30 60 1 61 65
M  V30 61 1 62 66
M  V30 62 1 62 67
M  V30 63 1 68 69
M  V30 64 1 69 70
M  V30 65 1 68 71
M  V30 66 1 68 72
M  V30 67 1 69 73
M  V30 68 1 70 74
M  V30 69 1 70 75
M  V30 70 1 76 77
M  V30 71 1 77 78
M  V30 72 1 78 79
M  V30 73 1 79 80
M  V30 74 1 76 81
M  V30 75 1 76 82
M  V30 76 1 77 83
M  V30 77 1 77 84
M  V30 78 1 79 85
M  V30 79 1 79 86
M  V30 80 1 80 87
M  V30 81 1 80 88
M  V30 82 1 89 90
M  V30 83 1 90 91
M  V30 84 1 91 92
M  V30 85 1 92 93
M  V30 86 1 89 94
M  V30 87 1 89 95
M  V30 88 1 90 96
M  V30 89 1 90 97
M  V30 90 1 92 98
M  V30 91 1 92 99
M  V30 92 1 93 100
M  V30 93 1 93 101
M  V30 94 1 102 103
M  V30 95 1 103 104
M  V30 96 1 104 105
M  V30 97 1 105 106
M  V30 98 1 102 107
M  V30 99 1 102 108
M  V30 100 1 103 109
M  V30 101 1 103 110
M  V30 102 1 105 111
M  V30 103 1 105 112
M  V30 104 1 106 113
M  V30 105 1 106 114
M  V30 106 1 1 60
M  V30 107 1 2 68
M  V30 108 1 5 89
M  V30 109 1 7 76
M  V30 110 1 18 62
M  V30 111 1 19 102
M  V30 112 1 22 52
M  V30 113 1 24 54
M  V30 114 1 35 80
M  V30 115 1 36 106
M  V30 116 1 39 70
M  V30 117 1 41 93
M  V30 END BOND
M  V30 END CTAB
M  END

$$$$
