
     RDKit          3D

  0  0  0  0  0  0  0  0  0  0999 V3000
M  V30 BEGIN CTAB
M  V30 COUNTS 114 117 0 0 0
M  V30 BEGIN ATOM
M  V30 1 C 2.2740 -1.2161 -1.0311 0
M  V30 2 C 1.8991 -1.7190 0.3481 0
M  V30 3 C 1.1753 -0.6355 1.1431 0
M  V30 4 O 0.0351 -0.2948 0.4482 0
M  V30 5 C -0.7280 0.6886 1.0598 0
M  V30 6 C -0.7540 1.9106 0.2118 0
M  V30 7 C -1.5653 3.0289 0.8111 0
M  V30 8 H 2.7359 -2.0725 -1.5636 0
M  V30 9 H 2.9985 -0.3877 -0.8979 0
M  V30 10 H 1.2185 -2.5916 0.1619 0
M  V30 11 H 1.0112 -1.0037 2.1688 0
M  V30 12 H 1.8765 0.2451 1.1301 0
M  V30 13 H -0.1874 0.9544 1.9981 0
M  V30 14 H 0.2554 2.2860 -0.0026 0
M  V30 15 H -1.2175 1.7311 -0.7977 0
M  V30 16 H -1.1592 3.2421 1.8320 0
M  V30 17 H -1.4760 3.9709 0.2469 0
M  V30 18 C -2.4322 -0.0414 -1.4299 0
M  V30 19 C -1.9906 -1.4566 -1.1174 0
M  V30 20 C -0.4691 -1.5712 -1.1531 0
M  V30 21 O 0.0402 -0.7074 -0.2078 0
M  V30 22 C 1.4248 -0.7067 -0.1289 0
M  V30 23 C 1.9548 0.6229 -0.5342 0
M  V30 24 C 3.4575 0.7032 -0.4758 0
M  V30 25 H -3.5363 -0.0255 -1.3241 0
M  V30 26 H -2.1252 0.1809 -2.4716 0
M  V30 27 H -2.3764 -1.6575 -0.0829 0
M  V30 28 H -0.1939 -2.6304 -1.0223 0
M  V30 29 H -0.1779 -1.1943 -2.1731 0
M  V30 30 H 1.7738 -1.4427 -0.8904 0
M  V30 31 H 1.6278 0.9079 -1.5430 0
M  V30 32 H 1.5985 1.4562 0.1326 0
M  V30 33 H 3.8727 -0.1193 -1.1114 0
M  V30 34 H 3.8517 1.6410 -0.8985 0
M  V30 35 C -0.9653 -2.3397 -1.4297 0
M  V30 36 C -1.6222 -1.0598 -1.9047 0
M  V30 37 C -1.7488 -0.0573 -0.7607 0
M  V30 38 O -0.4795 0.2168 -0.2992 0
M  V30 39 C -0.4421 1.1218 0.7511 0
M  V30 40 C 0.0718 0.4544 1.9772 0
M  V30 41 C 0.1415 1.3755 3.1666 0
M  V30 42 H -0.8538 -2.9869 -2.3237 0
M  V30 43 H -1.6392 -2.8019 -0.6807 0
M  V30 44 H -0.9389 -0.6633 -2.7017 0
M  V30 45 H -2.3194 0.8145 -1.1198 0
M  V30 46 H -2.3082 -0.6111 0.0441 0
M  V30 47 H -1.5031 1.3999 0.9516 0
M  V30 48 H -0.5260 -0.4254 2.2499 0
M  V30 49 H 1.1209 0.0661 1.8553 0
M  V30 50 H -0.8774 1.8097 3.3278 0
M  V30 51 H 0.3974 0.8490 4.0998 0
M  V30 52 C 1.2443 0.1536 0.7393 0
M  V30 53 N 1.5738 -0.1851 -0.6093 0
M  V30 54 C 0.5723 -0.9321 -1.3148 0
M  V30 55 H 1.1472 -0.7292 1.4055 0
M  V30 56 H 2.0552 0.7676 1.1610 0
M  V30 57 H 2.4465 -0.7566 -0.6252 0
M  V30 58 H 0.4920 -1.9605 -0.9110 0
M  V30 59 H 0.9533 -1.0358 -2.3686 0
M  V30 60 C 0.2172 -1.0585 -1.3680 0
M  V30 61 N -1.1455 -1.1351 -0.9451 0
M  V30 62 C -1.3837 -0.7688 0.4215 0
M  V30 63 H 0.8822 -1.7801 -0.8489 0
M  V30 64 H 0.2727 -1.3070 -2.4393 0
M  V30 65 H -1.4963 -2.1105 -1.0638 0
M  V30 66 H -0.9638 -1.5277 1.1107 0
M  V30 67 H -2.5003 -0.8027 0.5575 0
M  V30 68 C -0.0007 -0.3257 -1.6806 0
M  V30 69 N -1.0661 0.4491 -1.1272 0
M  V30 70 C -1.6011 -0.0419 0.1103 0
M  V30 71 H -0.3101 -1.3467 -1.9879 0
M  V30 72 H 0.3648 0.1709 -2.5929 0
M  V30 73 H -1.8583 0.4924 -1.8047 0
M  V30 74 H -2.1607 -0.9844 -0.0500 0
M  V30 75 H -2.3581 0.7222 0.4413 0
M  V30 76 C 2.0905 -0.5845 1.7988 0
M  V30 77 C 0.8711 -1.1776 2.4427 0
M  V30 78 S -0.5131 -1.1505 1.3303 0
M  V30 79 C -1.1754 0.4427 0.9110 0
M  V30 80 C -2.3608 0.1930 -0.0295 0
M  V30 81 H 2.4025 -1.1832 0.9032 0
M  V30 82 H 2.9549 -0.6029 2.5330 0
M  V30 83 H 1.1281 -2.2561 2.6662 0
M  V30 84 H 0.6600 -0.7384 3.4386 0
M  V30 85 H -0.4691 1.0264 0.2869 0
M  V30 86 H -1.4913 1.0680 1.7663 0
M  V30 87 H -2.8842 1.1058 -0.3067 0
M  V30 88 H -3.0619 -0.5163 0.4668 0
M  V30 89 C 1.4404 1.9358 1.4320 0
M  V30 90 C 0.0685 1.9677 2.0407 0
M  V30 91 S -0.8725 0.5387 1.5646 0
M  V30 92 C -1.3369 0.4158 -0.1447 0
M  V30 93 C -2.1507 -0.8763 -0.2879 0
M  V30 94 H 2.0206 1.0483 1.7974 0
M  V30 95 H 2.0149 2.8636 1.7413 0
M  V30 96 H 0.2221 1.9369 3.1608 0
M  V30 97 H -0.4519 2.9310 1.8659 0
M  V30 98 H -0.4563 0.2397 -0.7948 0
M  V30 99 H -1.9073 1.2733 -0.5468 0
M  V30 100 H -2.5406 -1.0249 -1.2929 0
M  V30 101 H -2.9863 -0.8506 0.4484 0
M  V30 102 C -0.5335 1.7574 -2.1560 0
M  V30 103 C 0.9308 1.4873 -2.3464 0
M  V30 104 S 1.4470 0.0786 -1.3959 0
M  V30 105 C 1.4305 0.2522 0.3711 0
M  V30 106 C 1.9353 -1.0759 0.9486 0
M  V30 107 H -1.1511 0.8954 -2.5213 0
M  V30 108 H -0.8340 2.6672 -2.7630 0
M  V30 109 H 1.0648 1.2461 -3.4432 0
M  V30 110 H 1.5537 2.3912 -2.1905 0
M  V30 111 H 0.3965 0.3281 0.7637 0
M  V30 112 H 2.0240 1.0940 0.7732 0
M  V30 113 H 2.0230 -1.0628 2.0331 0
M  V30 114 H 2.9215 -1.3097 0.4863 0
M  V30 END ATOM
M  V30 BEGIN BOND
M  V30 1 1 1 2
M  V30 2 1 2 3
M  V30 3 1 3 4
M  V30 4 1 4 5
M  V30 5 1 5 6
M  V30 6 1 6 7
M  V30 7 1 1 8
M  V30 8 1 1 9
M  V30 9 1 2 10
M  V30 10 1 3 11
M  V30 11 1 3 12
M  V30 12 1 5 13
M  V30 13 1 6 14
M  V30 14 1 6 15
M  V30 15 1 7 16
M  V30 16 1 7 17
M  V30 17 1 18 19
M  V30 18 1 19 20
M  V30 19 1 20 21
M  V30 20 1 21 22
M  V30 21 1 22 23
M  V30 22 1 23 24
M  V30 23 1 18 25
M  V30 24 1 18 26
M  V30 25 1 19 27
M  V30 26 1 20 28
M  V30 27 1 20 29
M  V30 28 1 22 30
M  V30 29 1 23 31
M  V30 30 1 23 32
M  V30 31 1 24 33
M  V30 32 1 24 34
M  V30 33 1 35 36
M  V30 34 1 36 37
M  V30 35 1 37 38
M  V30 36 1 38 39
M  V30 37 1 39 40
M  V30 38 1 40 41
M  V30 39 1 35 42
M  V30 40 1 35 43
M  V30 41 1 36 44
M  V30 42 1 37 45
M  V30 43 1 37 46
M  V30 44 1 39 47
M  V30 45 1 40 48
M  V30 46 1 40 49
M  V30 47 1 41 50
M  V30 48 1 41 51
M  V30 49 1 52 53
M  V30 50 1 53 54
M  V30 51 1 52 55
M  V30 52 1 52 56
M  V30 53 1 53 57
M  V30 54 1 54 58
M  V30 55 1 54 59
M  V30 56 1 60 61
M  V30 57 1 61 62
M  V30 58 1 60 63
M  V30 59 1 60 64
M  V30 60 1 61 65
M  V30 61 1 62 66
M  V30 62 1 62 67
M  V30 63 1 68 69
M  V30 64 1 69 70
M  V30 65 1 68 71
M  V30 66 1 68 72
M  V30 67 1 69 73
M  V30 68 1 70 74
M  V30 69 1 70 75
M  V30 70 1 76 77
M  V30 71 1 77 78
M  V30 72 1 78 79
M  V30 73 1 79 80
M  V30 74 1 76 81
M  V30 75 1 76 82
M  V30 76 1 77 83
M  V30 77 1 77 84
M  V30 78 1 79 85
M  V30 79 1 79 86
M  V30 80 1 80 87
M  V30 81 1 80 88
M  V30 82 1 89 90
M  V30 83 1 90 91
M  V30 84 1 91 92
M  V30 85 1 92 93
M  V30 86 1 89 94
M  V30 87 1 89 95
M  V30 88 1 90 96
M  V30 89 1 90 97
M  V30 90 1 92 98
M  V30 91 1 92 99
M  V30 92 1 93 100
M  V30 93 1 93 101
M  V30 94 1 102 103
M  V30 95 1 103 104
M  V30 96 1 104 105
M  V30 97 1 105 106
M  V30 98 1 102 107
M  V30 99 1 102 108
M  V30 100 1 103 109
M  V30 101 1 103 110
M  V30 102 1 105 111
M  V30 103 1 105 112
M  V30 104 1 106 113
M  V30 105 1 106 114
M  V30 106 1 1 52
M  V30 107 1 7 106
M  V30 108 1 2 76
M  V30 109 1 5 89
M  V30 110 1 18 68
M  V30 111 1 24 102
M  V30 112 1 19 60
M  V30 113 1 22 54
M  V30 114 1 35 62
M  V30 115 1 41 80
M  V30 116 1 36 70
M  V30 117 1 39 93
M  V30 END BOND
M  V30 END CTAB
M  END

$$$$
