
     RDKit          3D

  0  0  0  0  0  0  0  0  0  0999 V3000
M  V30 BEGIN CTAB
M  V30 COUNTS 114 117 0 0 0
M  V30 BEGIN ATOM
M  V30 1 C 2.0884 -1.1307 -1.2745 0
M  V30 2 C 2.1542 -1.0976 0.2388 0
M  V30 3 C 1.2117 -0.0365 0.8004 0
M  V30 4 O -0.0675 -0.3553 0.3989 0
M  V30 5 C -1.0374 0.5319 0.8413 0
M  V30 6 C -1.6556 1.2271 -0.3195 0
M  V30 7 C -2.7223 2.2120 0.0808 0
M  V30 8 H 2.7481 -1.9610 -1.6002 0
M  V30 9 H 2.4590 -0.1540 -1.6454 0
M  V30 10 H 1.8321 -2.1222 0.5642 0
M  V30 11 H 1.3631 0.0258 1.8902 0
M  V30 12 H 1.5180 0.9179 0.2880 0
M  V30 13 H -0.4952 1.3056 1.4337 0
M  V30 14 H -0.9097 1.7489 -0.9336 0
M  V30 15 H -2.1711 0.5203 -1.0272 0
M  V30 16 H -2.2700 2.9364 0.8043 0
M  V30 17 H -3.0849 2.8162 -0.7660 0
M  V30 18 C 1.4566 -1.2216 -1.6727 0
M  V30 19 C 1.5224 -1.1884 -0.1594 0
M  V30 20 C 0.5799 -0.1274 0.4021 0
M  V30 21 O -0.6993 -0.4461 0.0007 0
M  V30 22 C -1.6692 0.4411 0.4431 0
M  V30 23 C -2.2874 1.1363 -0.7178 0
M  V30 24 C -3.3541 2.1212 -0.3174 0
M  V30 25 H 2.1163 -2.0518 -1.9984 0
M  V30 26 H 1.8271 -0.2449 -2.0436 0
M  V30 27 H 1.2003 -2.2130 0.1659 0
M  V30 28 H 0.7313 -0.0651 1.4919 0
M  V30 29 H 0.8862 0.8271 -0.1103 0
M  V30 30 H -1.1270 1.2147 1.0354 0
M  V30 31 H -1.5415 1.6581 -1.3319 0
M  V30 32 H -2.8029 0.4295 -1.4254 0
M  V30 33 H -2.9018 2.8456 0.4060 0
M  V30 34 H -3.7167 2.7254 -1.1642 0
M  V30 35 C 2.7203 -1.0399 -0.8762 0
M  V30 36 C 2.7861 -1.0067 0.6371 0
M  V30 37 C 1.8435 0.0543 1.1986 0
M  V30 38 O 0.5643 -0.2644 0.7972 0
M  V30 39 C -0.4055 0.6228 1.2396 0
M  V30 40 C -1.0238 1.3180 0.0787 0
M  V30 41 C -2.0904 2.3029 0.4791 0
M  V30 42 H 3.3799 -1.8701 -1.2019 0
M  V30 43 H 3.0908 -0.0631 -1.2471 0
M  V30 44 H 2.4639 -2.0313 0.9624 0
M  V30 45 H 1.9950 0.1166 2.2885 0
M  V30 46 H 2.1498 1.0088 0.6863 0
M  V30 47 H 0.1366 1.3964 1.8319 0
M  V30 48 H -0.2778 1.8398 -0.5354 0
M  V30 49 H -1.5393 0.6112 -0.6289 0
M  V30 50 H -1.6382 3.0273 1.2026 0
M  V30 51 H -2.4530 2.9071 -0.3677 0
M  V30 52 C 1.7941 0.2169 0.0330 0
M  V30 53 N 0.6390 -0.3506 -0.5878 0
M  V30 54 C -0.6158 0.2062 -0.1706 0
M  V30 55 H 1.8457 0.0290 1.1260 0
M  V30 56 H 2.6950 -0.2452 -0.3999 0
M  V30 57 H 0.5990 -1.3737 -0.3876 0
M  V30 58 H -0.8444 -0.0798 0.8750 0
M  V30 59 H -1.3981 -0.2879 -0.8110 0
M  V30 60 C 0.3257 -0.0093 -0.5569 0
M  V30 61 N -0.8294 -0.5769 -1.1777 0
M  V30 62 C -2.0842 -0.0201 -0.7605 0
M  V30 63 H 0.3773 -0.1973 0.5361 0
M  V30 64 H 1.2266 -0.4715 -0.9898 0
M  V30 65 H -0.8694 -1.6000 -0.9774 0
M  V30 66 H -2.3128 -0.3061 0.2851 0
M  V30 67 H -2.8666 -0.5142 -1.4009 0
M  V30 68 C 2.3257 0.2783 0.7037 0
M  V30 69 N 1.1706 -0.2893 0.0829 0
M  V30 70 C -0.0842 0.2676 0.5001 0
M  V30 71 H 2.3773 0.0903 1.7967 0
M  V30 72 H 3.2266 -0.1838 0.2708 0
M  V30 73 H 1.1306 -1.3123 0.2831 0
M  V30 74 H -0.3128 -0.0185 1.5457 0
M  V30 75 H -0.8666 -0.2265 -0.1403 0
M  V30 76 C -2.5763 -0.2267 -0.4865 0
M  V30 77 C -1.8519 -1.3427 0.2086 0
M  V30 78 S -0.2094 -0.8469 0.6675 0
M  V30 79 C 0.9410 -0.5581 -0.6538 0
M  V30 80 C 2.2737 -0.1715 -0.0005 0
M  V30 81 H -2.6992 0.6565 0.1937 0
M  V30 82 H -3.6161 -0.5728 -0.7790 0
M  V30 83 H -2.4371 -1.5559 1.1526 0
M  V30 84 H -1.8956 -2.2953 -0.3572 0
M  V30 85 H 0.6702 0.3427 -1.2405 0
M  V30 86 H 1.0883 -1.4032 -1.3513 0
M  V30 87 H 3.0755 -0.0271 -0.7218 0
M  V30 88 H 2.5522 -0.9653 0.7297 0
M  V30 89 C -2.1312 0.1109 0.1734 0
M  V30 90 C -1.4067 -1.0051 0.8685 0
M  V30 91 S 0.2358 -0.5093 1.3274 0
M  V30 92 C 1.3862 -0.2205 0.0061 0
M  V30 93 C 2.7189 0.1661 0.6594 0
M  V30 94 H -2.2540 0.9941 0.8536 0
M  V30 95 H -3.1709 -0.2352 -0.1191 0
M  V30 96 H -1.9919 -1.2183 1.8125 0
M  V30 97 H -1.4504 -1.9577 0.3027 0
M  V30 98 H 1.1153 0.6803 -0.5806 0
M  V30 99 H 1.5335 -1.0656 -0.6914 0
M  V30 100 H 3.5207 0.3105 -0.0619 0
M  V30 101 H 2.9974 -0.6277 1.3897 0
M  V30 102 C -2.6737 0.3371 -0.4606 0
M  V30 103 C -1.9493 -0.7790 0.2344 0
M  V30 104 S -0.3067 -0.2831 0.6933 0
M  V30 105 C 0.8437 0.0057 -0.6279 0
M  V30 106 C 2.1763 0.3923 0.0254 0
M  V30 107 H -2.7965 1.2203 0.2196 0
M  V30 108 H -3.7134 -0.0090 -0.7532 0
M  V30 109 H -2.5344 -0.9921 1.1785 0
M  V30 110 H -1.9930 -1.7315 -0.3313 0
M  V30 111 H 0.5728 0.9065 -1.2147 0
M  V30 112 H 0.9909 -0.8394 -1.3254 0
M  V30 113 H 2.9782 0.5367 -0.6959 0
M  V30 114 H 2.4549 -0.4015 0.7556 0
M  V30 END ATOM
M  V30 BEGIN BOND
M  V30 1 1 1 2
M  V30 2 1 2 3
M  V30 3 1 3 4
M  V30 4 1 4 5
M  V30 5 1 5 6
M  V30 6 1 6 7
M  V30 7 1 1 8
M  V30 8 1 1 9
M  V30 9 1 2 10
M  V30 10 1 3 11
M  V30 11 1 3 12
M  V30 12 1 5 13
M  V30 13 1 6 14
M  V30 14 1 6 15
M  V30 15 1 7 16
M  V30 16 1 7 17
M  V30 17 1 18 19
M  V30 18 1 19 20
M  V30 19 1 20 21
M  V30 20 1 21 22
M  V30 21 1 22 23
M  V30 22 1 23 24
M  V30 23 1 18 25
M  V30 24 1 18 26
M  V30 25 1 19 27
M  V30 26 1 20 28
M  V30 27 1 20 29
M  V30 28 1 22 30
M  V30 29 1 23 31
M  V30 30 1 23 32
M  V30 31 1 24 33
M  V30 32 1 24 34
M  V30 33 1 35 36
M  V30 34 1 36 37
M  V30 35 1 37 38
M  V30 36 1 38 39
M  V30 37 1 39 40
M  V30 38 1 40 41
M  V30 39 1 35 42
M  V30 40 1 35 43
M  V30 41 1 36 44
M  V30 42 1 37 45
M  V30 43 1 37 46
M  V30 44 1 39 47
M  V30 45 1 40 48
M  V30 46 1 40 49
M  V30 47 1 41 50
M  V30 48 1 41 51
M  V30 49 1 52 53
M  V30 50 1 53 54
M  V30 51 1 52 55
M  V30 52 1 52 56
M  V30 53 1 53 57
M  V30 54 1 54 58
M  V30 55 1 54 59
M  V30 56 1 60 61
M  V30 57 1 61 62
M  V30 58 1 60 63
M  V30 59 1 60 64
M  V30 60 1 61 65
M  V30 61 1 62 66
M  V30 62 1 62 67
M  V30 63 1 68 69
M  V30 64 1 69 70
M  V30 65 1 68 71
M  V30 66 1 68 72
M  V30 67 1 69 73
M  V30 68 1 70 74
M  V30 69 1 70 75
M  V30 70 1 76 77
M  V30 71 1 77 78
M  V30 72 1 78 79
M  V30 73 1 79 80
M  V30 74 1 76 81
M  V30 75 1 76 82
M  V30 76 1 77 83
M  V30 77 1 77 84
M  V30 78 1 79 85
M  V30 79 1 79 86
M  V30 80 1 80 87
M  V30 81 1 80 88
M  V30 82 1 89 90
M  V30 83 1 90 91
M  V30 84 1 91 92
M  V30 85 1 92 93
M  V30 86 1 89 94
M  V30 87 1 89 95
M  V30 88 1 90 96
M  V30 89 1 90 97
M  V30 90 1 92 98
M  V30 91 1 92 99
M  V30 92 1 93 100
M  V30 93 1 93 101
M  V30 94 1 102 103
M  V30 95 1 103 104
M  V30 96 1 104 105
M  V30 97 1 105 106
M  V30 98 1 102 107
M  V30 99 1 102 108
M  V30 100 1 103 109
M  V30 101 1 103 110
M  V30 102 1 105 111
M  V30 103 1 105 112
M  V30 104 1 106 113
M  V30 105 1 106 114
M  V30 106 1 1 52
M  V30 107 1 2 76
M  V30 108 1 5 89
M  V30 109 1 7 102
M  V30 110 1 18 80
M  V30 111 1 19 60
M  V30 112 1 22 62
M  V30 113 1 24 106
M  V30 114 1 35 93
M  V30 115 1 36 68
M  V30 116 1 39 70
M  V30 117 1 41 54
M  V30 END BOND
M  V30 END CTAB
M  END

$$$$
