
     RDKit          3D

  0  0  0  0  0  0  0  0  0  0999 V3000
M  V30 BEGIN CTAB
M  V30 COUNTS 114 117 0 0 0
M  V30 BEGIN ATOM
M  V30 1 C 2.0855 -1.1238 -1.2697 0
M  V30 2 C 2.1513 -1.0906 0.2436 0
M  V30 3 C 1.2087 -0.0296 0.8051 0
M  V30 4 O -0.0705 -0.3483 0.4037 0
M  V30 5 C -1.0403 0.5389 0.8461 0
M  V30 6 C -1.6585 1.2341 -0.3147 0
M  V30 7 C -2.7252 2.2190 0.0856 0
M  V30 8 H 2.7451 -1.9540 -1.5954 0
M  V30 9 H 2.4560 -0.1470 -1.6406 0
M  V30 10 H 1.8291 -2.1152 0.5689 0
M  V30 11 H 1.3602 0.0327 1.8950 0
M  V30 12 H 1.5151 0.9249 0.2928 0
M  V30 13 H -0.4982 1.3125 1.4384 0
M  V30 14 H -0.9126 1.7559 -0.9288 0
M  V30 15 H -2.1740 0.5273 -1.0224 0
M  V30 16 H -2.2729 2.9434 0.8091 0
M  V30 17 H -3.0878 2.8232 -0.7612 0
M  V30 18 C 1.3667 -1.3463 -1.1574 0
M  V30 19 C 1.4325 -1.3132 0.3559 0
M  V30 20 C 0.4900 -0.2521 0.9174 0
M  V30 21 O -0.7892 -0.5709 0.5160 0
M  V30 22 C -1.7591 0.3164 0.9584 0
M  V30 23 C -2.3773 1.0115 -0.2024 0
M  V30 24 C -3.4440 1.9965 0.1979 0
M  V30 25 H 2.0264 -2.1765 -1.4831 0
M  V30 26 H 1.7372 -0.3696 -1.5283 0
M  V30 27 H 1.1104 -2.3378 0.6812 0
M  V30 28 H 0.6414 -0.1898 2.0073 0
M  V30 29 H 0.7963 0.7023 0.4051 0
M  V30 30 H -1.2169 1.0900 1.5507 0
M  V30 31 H -1.6314 1.5333 -0.8165 0
M  V30 32 H -2.8928 0.3048 -0.9101 0
M  V30 33 H -2.9917 2.7209 0.9214 0
M  V30 34 H -3.8066 2.6006 -0.6489 0
M  V30 35 C 2.8007 -0.9055 -1.3851 0
M  V30 36 C 2.8665 -0.8724 0.1282 0
M  V30 37 C 1.9240 0.1887 0.6897 0
M  V30 38 O 0.6448 -0.1300 0.2883 0
M  V30 39 C -0.3251 0.7572 0.7307 0
M  V30 40 C -0.9433 1.4524 -0.4301 0
M  V30 41 C -2.0100 2.4373 -0.0298 0
M  V30 42 H 3.4604 -1.7357 -1.7108 0
M  V30 43 H 3.1713 0.0712 -1.7560 0
M  V30 44 H 2.5444 -1.8969 0.4535 0
M  V30 45 H 2.0754 0.2510 1.7796 0
M  V30 46 H 2.2303 1.1432 0.1774 0
M  V30 47 H 0.2171 1.5308 1.3230 0
M  V30 48 H -0.1974 1.9742 -1.0442 0
M  V30 49 H -1.4588 0.7456 -1.1378 0
M  V30 50 H -1.5577 3.1617 0.6937 0
M  V30 51 H -2.3726 3.0415 -0.8766 0
M  V30 52 C 1.6938 0.3497 0.1233 0
M  V30 53 N 0.5387 -0.2179 -0.4975 0
M  V30 54 C -0.7161 0.3390 -0.0803 0
M  V30 55 H 1.7454 0.1617 1.2163 0
M  V30 56 H 2.5947 -0.1124 -0.3096 0
M  V30 57 H 0.4987 -1.2409 -0.2972 0
M  V30 58 H -0.9446 0.0529 0.9653 0
M  V30 59 H -1.4984 -0.1551 -0.7207 0
M  V30 60 C 0.3212 -0.1700 0.2341 0
M  V30 61 N -0.8340 -0.7376 -0.3867 0
M  V30 62 C -2.0888 -0.1807 0.0305 0
M  V30 63 H 0.3728 -0.3580 1.3271 0
M  V30 64 H 1.2220 -0.6321 -0.1988 0
M  V30 65 H -0.8740 -1.7606 -0.1865 0
M  V30 66 H -2.3173 -0.4668 1.0761 0
M  V30 67 H -2.8711 -0.6748 -0.6099 0
M  V30 68 C 2.3139 0.4434 -0.0824 0
M  V30 69 N 1.1588 -0.1242 -0.7032 0
M  V30 70 C -0.0960 0.4327 -0.2860 0
M  V30 71 H 2.3655 0.2554 1.0105 0
M  V30 72 H 3.2148 -0.0187 -0.5153 0
M  V30 73 H 1.1188 -1.1472 -0.5030 0
M  V30 74 H -0.3245 0.1466 0.7596 0
M  V30 75 H -0.8783 -0.0615 -0.9265 0
M  V30 76 C -2.7279 0.0597 -0.3192 0
M  V30 77 C -2.0035 -1.0564 0.3758 0
M  V30 78 S -0.3610 -0.5605 0.8347 0
M  V30 79 C 0.7894 -0.2717 -0.4866 0
M  V30 80 C 2.1221 0.1149 0.1668 0
M  V30 81 H -2.8508 0.9429 0.3610 0
M  V30 82 H -3.7677 -0.2864 -0.6118 0
M  V30 83 H -2.5887 -1.2695 1.3198 0
M  V30 84 H -2.0472 -2.0089 -0.1899 0
M  V30 85 H 0.5186 0.6291 -1.0733 0
M  V30 86 H 0.9367 -1.1169 -1.1840 0
M  V30 87 H 2.9239 0.2593 -0.5545 0
M  V30 88 H 2.4006 -0.6789 0.8970 0
M  V30 89 C -1.9139 0.1340 -0.4346 0
M  V30 90 C -1.1894 -0.9821 0.2605 0
M  V30 91 S 0.4531 -0.4863 0.7194 0
M  V30 92 C 1.6035 -0.1974 -0.6019 0
M  V30 93 C 2.9362 0.1891 0.0514 0
M  V30 94 H -2.0367 1.0172 0.2457 0
M  V30 95 H -2.9536 -0.2121 -0.7271 0
M  V30 96 H -1.7746 -1.1953 1.2045 0
M  V30 97 H -1.2331 -1.9347 -0.3052 0
M  V30 98 H 1.3326 0.7033 -1.1886 0
M  V30 99 H 1.7508 -1.0426 -1.2993 0
M  V30 100 H 3.7380 0.3336 -0.6698 0
M  V30 101 H 3.2147 -0.6047 0.7817 0
M  V30 102 C -2.6514 -0.0785 -0.0932 0
M  V30 103 C -1.9270 -1.1945 0.6019 0
M  V30 104 S -0.2844 -0.6987 1.0608 0
M  V30 105 C 0.8660 -0.4099 -0.2605 0
M  V30 106 C 2.1986 -0.0233 0.3928 0
M  V30 107 H -2.7743 0.8048 0.5871 0
M  V30 108 H -3.6911 -0.4246 -0.3857 0
M  V30 109 H -2.5121 -1.4077 1.5459 0
M  V30 110 H -1.9707 -2.1471 0.0361 0
M  V30 111 H 0.5951 0.4909 -0.8472 0
M  V30 112 H 1.0132 -1.2550 -0.9579 0
M  V30 113 H 3.0004 0.1212 -0.3284 0
M  V30 114 H 2.4771 -0.8171 1.1231 0
M  V30 END ATOM
M  V30 BEGIN BOND
M  V30 1 1 1 2
M  V30 2 1 2 3
M  V30 3 1 3 4
M  V30 4 1 4 5
M  V30 5 1 5 6
M  V30 6 1 6 7
M  V30 7 1 1 8
M  V30 8 1 1 9
M  V30 9 1 2 10
M  V30 10 1 3 11
M  V30 11 1 3 12
M  V30 12 1 5 13
M  V30 13 1 6 14
M  V30 14 1 6 15
M  V30 15 1 7 16
M  V30 16 1 7 17
M  V30 17 1 18 19
M  V30 18 1 19 20
M  V30 19 1 20 21
M  V30 20 1 21 22
M  V30 21 1 22 23
M  V30 22 1 23 24
M  V30 23 1 18 25
M  V30 24 1 18 26
M  V30 25 1 19 27
M  V30 26 1 20 28
M  V30 27 1 20 29
M  V30 28 1 22 30
M  V30 29 1 23 31
M  V30 30 1 23 32
M  V30 31 1 24 33
M  V30 32 1 24 34
M  V30 33 1 35 36
M  V30 34 1 36 37
M  V30 35 1 37 38
M  V30 36 1 38 39
M  V30 37 1 39 40
M  V30 38 1 40 41
M  V30 39 1 35 42
M  V30 40 1 35 43
M  V30 41 1 36 44
M  V30 42 1 37 45
M  V30 43 1 37 46
M  V30 44 1 39 47
M  V30 45 1 40 48
M  V30 46 1 40 49
M  V30 47 1 41 50
M  V30 48 1 41 51
M  V30 49 1 52 53
M  V30 50 1 53 54
M  V30 51 1 52 55
M  V30 52 1 52 56
M  V30 53 1 53 57
M  V30 54 1 54 58
M  V30 55 1 54 59
M  V30 56 1 60 61
M  V30 57 1 61 62
M  V30 58 1 60 63
M  V30 59 1 60 64
M  V30 60 1 61 65
M  V30 61 1 62 66
M  V30 62 1 62 67
M  V30 63 1 68 69
M  V30 64 1 69 70
M  V30 65 1 68 71
M  V30 66 1 68 72
M  V30 67 1 69 73
M  V30 68 1 70 74
M  V30 69 1 70 75
M  V30 70 1 76 77
M  V30 71 1 77 78
M  V30 72 1 78 79
M  V30 73 1 79 80
M  V30 74 1 76 81
M  V30 75 1 76 82
M  V30 76 1 77 83
M  V30 77 1 77 84
M  V30 78 1 79 85
M  V30 79 1 79 86
M  V30 80 1 80 87
M  V30 81 1 80 88
M  V30 82 1 89 90
M  V30 83 1 90 91
M  V30 84 1 91 92
M  V30 85 1 92 93
M  V30 86 1 89 94
M  V30 87 1 89 95
M  V30 88 1 90 96
M  V30 89 1 90 97
M  V30 90 1 92 98
M  V30 91 1 92 99
M  V30 92 1 93 100
M  V30 93 1 93 101
M  V30 94 1 102 103
M  V30 95 1 103 104
M  V30 96 1 104 105
M  V30 97 1 105 106
M  V30 98 1 102 107
M  V30 99 1 102 108
M  V30 100 1 103 109
M  V30 101 1 103 110
M  V30 102 1 105 111
M  V30 103 1 105 112
M  V30 104 1 106 113
M  V30 105 1 106 114
M  V30 106 1 1 52
M  V30 107 1 2 76
M  V30 108 1 5 89
M  V30 109 1 7 102
M  V30 110 1 18 80
M  V30 111 1 19 60
M  V30 112 1 22 62
M  V30 113 1 24 106
M  V30 114 1 35 93
M  V30 115 1 36 68
M  V30 116 1 39 70
M  V30 117 1 41 54
M  V30 END BOND
M  V30 END CTAB
M  END

$$$$
