
     RDKit          3D

  0  0  0  0  0  0  0  0  0  0999 V3000
M  V30 BEGIN CTAB
M  V30 COUNTS 114 117 0 0 0
M  V30 BEGIN ATOM
M  V30 1 C 2.3466 -1.1523 -0.6223 0
M  V30 2 C 2.4124 -1.1192 0.8910 0
M  V30 3 C 1.4699 -0.0581 1.4526 0
M  V30 4 O 0.1907 -0.3768 1.0511 0
M  V30 5 C -0.7792 0.5104 1.4935 0
M  V30 6 C -1.3974 1.2056 0.3327 0
M  V30 7 C -2.4641 2.1905 0.7330 0
M  V30 8 H 3.0063 -1.9825 -0.9480 0
M  V30 9 H 2.7171 -0.1756 -0.9932 0
M  V30 10 H 2.0902 -2.1437 1.2164 0
M  V30 11 H 1.6213 0.0042 2.5424 0
M  V30 12 H 1.7762 0.8964 0.9402 0
M  V30 13 H -0.2370 1.2840 2.0859 0
M  V30 14 H -0.6515 1.7274 -0.2814 0
M  V30 15 H -1.9129 0.4988 -0.3750 0
M  V30 16 H -2.0118 2.9149 1.4565 0
M  V30 17 H -2.8267 2.7947 -0.1137 0
M  V30 18 C 1.8296 -0.5426 -1.4567 0
M  V30 19 C 1.8954 -0.5094 0.0566 0
M  V30 20 C 0.9529 0.5517 0.6181 0
M  V30 21 O -0.3263 0.2329 0.2167 0
M  V30 22 C -1.2962 1.1201 0.6591 0
M  V30 23 C -1.9144 1.8153 -0.5018 0
M  V30 24 C -2.9811 2.8002 -0.1014 0
M  V30 25 H 2.4893 -1.3728 -1.7824 0
M  V30 26 H 2.2002 0.4342 -1.8276 0
M  V30 27 H 1.5733 -1.5340 0.3819 0
M  V30 28 H 1.1043 0.6139 1.7080 0
M  V30 29 H 1.2592 1.5061 0.1058 0
M  V30 30 H -0.7540 1.8937 1.2514 0
M  V30 31 H -1.1685 2.3371 -1.1159 0
M  V30 32 H -2.4299 1.1085 -1.2094 0
M  V30 33 H -2.5288 3.5246 0.6221 0
M  V30 34 H -3.3437 3.4044 -0.9482 0
M  V30 35 C 2.0603 -1.6624 -1.6316 0
M  V30 36 C 2.1261 -1.6293 -0.1183 0
M  V30 37 C 1.1835 -0.5682 0.4432 0
M  V30 38 O -0.0957 -0.8870 0.0418 0
M  V30 39 C -1.0655 0.0003 0.4842 0
M  V30 40 C -1.6837 0.6954 -0.6766 0
M  V30 41 C -2.7504 1.6804 -0.2763 0
M  V30 42 H 2.7199 -2.4927 -1.9573 0
M  V30 43 H 2.4308 -0.6857 -2.0025 0
M  V30 44 H 1.8039 -2.6539 0.2071 0
M  V30 45 H 1.3350 -0.5059 1.5331 0
M  V30 46 H 1.4899 0.3862 -0.0691 0
M  V30 47 H -0.5234 0.7739 1.0765 0
M  V30 48 H -0.9378 1.2172 -1.2907 0
M  V30 49 H -2.1993 -0.0114 -1.3843 0
M  V30 50 H -2.2981 2.4048 0.4472 0
M  V30 51 H -3.1130 2.2845 -1.1231 0
M  V30 52 C 1.3302 0.5656 0.4153 0
M  V30 53 N 0.1750 -0.0019 -0.2055 0
M  V30 54 C -1.0798 0.5549 0.2117 0
M  V30 55 H 1.3818 0.3777 1.5082 0
M  V30 56 H 2.2310 0.1035 -0.0176 0
M  V30 57 H 0.1350 -1.0250 -0.0053 0
M  V30 58 H -1.3083 0.2689 1.2573 0
M  V30 59 H -1.8621 0.0608 -0.4288 0
M  V30 60 C 1.1103 0.1745 -0.3593 0
M  V30 61 N -0.0448 -0.3930 -0.9801 0
M  V30 62 C -1.2996 0.1638 -0.5629 0
M  V30 63 H 1.1619 -0.0134 0.7337 0
M  V30 64 H 2.0112 -0.2876 -0.7922 0
M  V30 65 H -0.0848 -1.4161 -0.7798 0
M  V30 66 H -1.5282 -0.1222 0.4827 0
M  V30 67 H -2.0820 -0.3303 -1.2033 0
M  V30 68 C 1.7513 0.0952 1.1118 0
M  V30 69 N 0.5961 -0.4724 0.4910 0
M  V30 70 C -0.6587 0.0845 0.9082 0
M  V30 71 H 1.8029 -0.0928 2.2047 0
M  V30 72 H 2.6521 -0.3669 0.6789 0
M  V30 73 H 0.5561 -1.4954 0.6912 0
M  V30 74 H -0.8872 -0.2016 1.9538 0
M  V30 75 H -1.4410 -0.4096 0.2677 0
M  V30 76 C -2.7198 1.0522 -0.5920 0
M  V30 77 C -1.9954 -0.0638 0.1031 0
M  V30 78 S -0.3529 0.4320 0.5620 0
M  V30 79 C 0.7975 0.7209 -0.7593 0
M  V30 80 C 2.1302 1.1074 -0.1060 0
M  V30 81 H -2.8427 1.9355 0.0883 0
M  V30 82 H -3.7596 0.7061 -0.8845 0
M  V30 83 H -2.5806 -0.2770 1.0471 0
M  V30 84 H -2.0391 -1.0164 -0.4627 0
M  V30 85 H 0.5267 1.6216 -1.3460 0
M  V30 86 H 0.9448 -0.1243 -1.4567 0
M  V30 87 H 2.9320 1.2519 -0.8272 0
M  V30 88 H 2.4087 0.3136 0.6243 0
M  V30 89 C -2.1234 -0.3259 -0.0646 0
M  V30 90 C -1.3990 -1.4420 0.6305 0
M  V30 91 S 0.2435 -0.9461 1.0894 0
M  V30 92 C 1.3939 -0.6573 -0.2319 0
M  V30 93 C 2.7266 -0.2707 0.4214 0
M  V30 94 H -2.2463 0.5573 0.6157 0
M  V30 95 H -3.1632 -0.6720 -0.3571 0
M  V30 96 H -1.9842 -1.6551 1.5745 0
M  V30 97 H -1.4427 -2.3945 0.0647 0
M  V30 98 H 1.1231 0.2435 -0.8186 0
M  V30 99 H 1.5412 -1.5025 -0.9293 0
M  V30 100 H 3.5284 -0.1263 -0.2998 0
M  V30 101 H 3.0051 -1.0645 1.1517 0
M  V30 102 C -2.3441 -0.7657 -0.8727 0
M  V30 103 C -1.6196 -1.8818 -0.1777 0
M  V30 104 S 0.0229 -1.3859 0.2812 0
M  V30 105 C 1.1733 -1.0971 -1.0400 0
M  V30 106 C 2.5060 -0.7105 -0.3867 0
M  V30 107 H -2.4669 0.1175 -0.1925 0
M  V30 108 H -3.3838 -1.1118 -1.1653 0
M  V30 109 H -2.2048 -2.0950 0.7664 0
M  V30 110 H -1.6633 -2.8343 -0.7434 0
M  V30 111 H 0.9024 -0.1963 -1.6268 0
M  V30 112 H 1.3206 -1.9423 -1.7375 0
M  V30 113 H 3.3078 -0.5661 -1.1080 0
M  V30 114 H 2.7845 -1.5043 0.3435 0
M  V30 END ATOM
M  V30 BEGIN BOND
M  V30 1 1 1 2
M  V30 2 1 2 3
M  V30 3 1 3 4
M  V30 4 1 4 5
M  V30 5 1 5 6
M  V30 6 1 6 7
M  V30 7 1 1 8
M  V30 8 1 1 9
M  V30 9 1 2 10
M  V30 10 1 3 11
M  V30 11 1 3 12
M  V30 12 1 5 13
M  V30 13 1 6 14
M  V30 14 1 6 15
M  V30 15 1 7 16
M  V30 16 1 7 17
M  V30 17 1 18 19
M  V30 18 1 19 20
M  V30 19 1 20 21
M  V30 20 1 21 22
M  V30 21 1 22 23
M  V30 22 1 23 24
M  V30 23 1 18 25
M  V30 24 1 18 26
M  V30 25 1 19 27
M  V30 26 1 20 28
M  V30 27 1 20 29
M  V30 28 1 22 30
M  V30 29 1 23 31
M  V30 30 1 23 32
M  V30 31 1 24 33
M  V30 32 1 24 34
M  V30 33 1 35 36
M  V30 34 1 36 37
M  V30 35 1 37 38
M  V30 36 1 38 39
M  V30 37 1 39 40
M  V30 38 1 40 41
M  V30 39 1 35 42
M  V30 40 1 35 43
M  V30 41 1 36 44
M  V30 42 1 37 45
M  V30 43 1 37 46
M  V30 44 1 39 47
M  V30 45 1 40 48
M  V30 46 1 40 49
M  V30 47 1 41 50
M  V30 48 1 41 51
M  V30 49 1 52 53
M  V30 50 1 53 54
M  V30 51 1 52 55
M  V30 52 1 52 56
M  V30 53 1 53 57
M  V30 54 1 54 58
M  V30 55 1 54 59
M  V30 56 1 60 61
M  V30 57 1 61 62
M  V30 58 1 60 63
M  V30 59 1 60 64
M  V30 60 1 61 65
M  V30 61 1 62 66
M  V30 62 1 62 67
M  V30 63 1 68 69
M  V30 64 1 69 70
M  V30 65 1 68 71
M  V30 66 1 68 72
M  V30 67 1 69 73
M  V30 68 1 70 74
M  V30 69 1 70 75
M  V30 70 1 76 77
M  V30 71 1 77 78
M  V30 72 1 78 79
M  V30 73 1 79 80
M  V30 74 1 76 81
M  V30 75 1 76 82
M  V30 76 1 77 83
M  V30 77 1 77 84
M  V30 78 1 79 85
M  V30 79 1 79 86
M  V30 80 1 80 87
M  V30 81 1 80 88
M  V30 82 1 89 90
M  V30 83 1 90 91
M  V30 84 1 91 92
M  V30 85 1 92 93
M  V30 86 1 89 94
M  V30 87 1 89 95
M  V30 88 1 90 96
M  V30 89 1 90 97
M  V30 90 1 92 98
M  V30 91 1 92 99
M  V30 92 1 93 100
M  V30 93 1 93 101
M  V30 94 1 102 103
M  V30 95 1 103 104
M  V30 96 1 104 105
M  V30 97 1 105 106
M  V30 98 1 102 107
M  V30 99 1 102 108
M  V30 100 1 103 109
M  V30 101 1 103 110
M  V30 102 1 105 111
M  V30 103 1 105 112
M  V30 104 1 106 113
M  V30 105 1 106 114
M  V30 106 1 1 52
M  V30 107 1 2 89
M  V30 108 1 5 68
M  V30 109 1 7 70
M  V30 110 1 18 54
M  V30 111 1 19 60
M  V30 112 1 22 76
M  V30 113 1 24 80
M  V30 114 1 35 102
M  V30 115 1 36 62
M  V30 116 1 39 93
M  V30 117 1 41 106
M  V30 END BOND
M  V30 END CTAB
M  END

$$$$
