
     RDKit          3D

  0  0  0  0  0  0  0  0  0  0999 V3000
M  V30 BEGIN CTAB
M  V30 COUNTS 114 117 0 0 0
M  V30 BEGIN ATOM
M  V30 1 C -1.2426 0.7072 -2.4262 0
M  V30 2 C -0.0950 1.6328 -2.0775 0
M  V30 3 C 0.0369 1.7885 -0.5649 0
M  V30 4 O 0.2708 0.5392 -0.0322 0
M  V30 5 C 0.4129 0.5294 1.3473 0
M  V30 6 C -0.6977 -0.2435 1.9657 0
M  V30 7 C -0.6140 -0.2994 3.4684 0
M  V30 8 H -1.2341 0.5971 -3.5299 0
M  V30 9 H -2.1776 1.1901 -2.0778 0
M  V30 10 H 0.8165 1.1352 -2.5030 0
M  V30 11 H 0.8120 2.5436 -0.3563 0
M  V30 12 H -0.9778 2.1365 -0.2237 0
M  V30 13 H 0.2937 1.5890 1.6735 0
M  V30 14 H -1.6827 0.1516 1.6842 0
M  V30 15 H -0.7133 -1.3206 1.6406 0
M  V30 16 H -0.5772 0.7514 3.8519 0
M  V30 17 H -1.5031 -0.7589 3.9286 0
M  V30 18 C 2.1810 -1.1053 -1.5094 0
M  V30 19 C 1.3471 -0.1734 -2.3648 0
M  V30 20 C -0.1330 -0.2898 -2.0108 0
M  V30 21 O -0.2757 0.0483 -0.6825 0
M  V30 22 C -1.5815 -0.0139 -0.2195 0
M  V30 23 C -1.7019 -1.0743 0.8169 0
M  V30 24 C -3.0965 -1.2046 1.3702 0
M  V30 25 H 3.2402 -0.9184 -1.7809 0
M  V30 26 H 1.8800 -2.1431 -1.7567 0
M  V30 27 H 1.7288 0.8549 -2.1278 0
M  V30 28 H -0.7125 0.3239 -2.7194 0
M  V30 29 H -0.3694 -1.3844 -2.1268 0
M  V30 30 H -2.1984 -0.3374 -1.0902 0
M  V30 31 H -1.3801 -2.0554 0.4432 0
M  V30 32 H -1.0550 -0.8801 1.7168 0
M  V30 33 H -3.7934 -1.3828 0.5127 0
M  V30 34 H -3.2110 -2.0725 2.0389 0
M  V30 35 C 0.1658 -2.7979 0.2144 0
M  V30 36 C 0.0032 -2.0710 1.5338 0
M  V30 37 C 0.7556 -0.7432 1.5186 0
M  V30 38 O 0.2344 0.0241 0.4994 0
M  V30 39 C 0.8292 1.2700 0.3676 0
M  V30 40 C 1.5325 1.3599 -0.9402 0
M  V30 41 C 2.2074 2.6885 -1.1583 0
M  V30 42 H -0.4549 -3.7149 0.2816 0
M  V30 43 H 1.2400 -3.0473 0.1018 0
M  V30 44 H -1.1009 -1.8967 1.6331 0
M  V30 45 H 0.6976 -0.2956 2.5240 0
M  V30 46 H 1.8143 -1.0175 1.2518 0
M  V30 47 H 1.6101 1.3204 1.1619 0
M  V30 48 H 2.2785 0.5636 -1.0636 0
M  V30 49 H 0.8378 1.2454 -1.8179 0
M  V30 50 H 2.9038 2.8675 -0.3005 0
M  V30 51 H 2.8330 2.7057 -2.0649 0
M  V30 52 C -0.5676 1.3748 -0.2527 0
M  V30 53 N -1.1406 0.5055 -1.2314 0
M  V30 54 C -0.4001 -0.6957 -1.4914 0
M  V30 55 H 0.4086 1.8046 -0.5608 0
M  V30 56 H -1.2431 2.2302 -0.0964 0
M  V30 57 H -1.2304 1.0098 -2.1402 0
M  V30 58 H 0.5460 -0.4672 -2.0207 0
M  V30 59 H -1.0274 -1.2925 -2.2102 0
M  V30 60 C -0.6525 -1.3631 -0.6852 0
M  V30 61 N -0.1565 -1.3323 0.6545 0
M  V30 62 C 1.1269 -0.7117 0.8177 0
M  V30 63 H -0.0401 -1.9878 -1.3689 0
M  V30 64 H -1.6593 -1.8091 -0.6826 0
M  V30 65 H -0.0721 -2.3055 1.0208 0
M  V30 66 H 1.9251 -1.3362 0.3704 0
M  V30 67 H 1.3213 -0.6975 1.9261 0
M  V30 68 C -0.1786 -0.8582 -1.4636 0
M  V30 69 N 1.1132 -1.1511 -0.9275 0
M  V30 70 C 1.5993 -0.2141 0.0444 0
M  V30 71 H -0.2083 0.0792 -2.0576 0
M  V30 72 H -0.4705 -1.6664 -2.1522 0
M  V30 73 H 1.8154 -1.1811 -1.6984 0
M  V30 74 H 1.8447 0.7551 -0.4328 0
M  V30 75 H 2.5728 -0.6375 0.4176 0
M  V30 76 C 2.7828 0.5164 1.1407 0
M  V30 77 C 2.2399 1.8623 0.7571 0
M  V30 78 S 0.4927 1.7796 0.4490 0
M  V30 79 C -0.0287 0.8600 -0.9776 0
M  V30 80 C -1.5580 0.9617 -1.0320 0
M  V30 81 H 2.3180 0.1536 2.0947 0
M  V30 82 H 3.9001 0.5944 1.3197 0
M  V30 83 H 2.4134 2.5358 1.6489 0
M  V30 84 H 2.8210 2.3386 -0.0582 0
M  V30 85 H 0.1537 -0.2262 -0.8514 0
M  V30 86 H 0.4103 1.1828 -1.9396 0
M  V30 87 H -1.9860 0.4786 -1.9081 0
M  V30 88 H -1.8412 2.0388 -1.0104 0
M  V30 89 C -1.1522 2.1677 1.5707 0
M  V30 90 C -0.2048 1.4639 2.4984 0
M  V30 91 S 0.9324 0.4435 1.5929 0
M  V30 92 C 0.2561 -0.9758 0.7678 0
M  V30 93 C 1.4307 -1.6920 0.0899 0
M  V30 94 H -0.5994 2.8583 0.8812 0
M  V30 95 H -1.8737 2.8017 2.1739 0
M  V30 96 H 0.3833 2.2764 3.0211 0
M  V30 97 H -0.7284 0.9374 3.3218 0
M  V30 98 H -0.3927 -0.6826 -0.0820 0
M  V30 99 H -0.3014 -1.6810 1.4114 0
M  V30 100 H 1.1385 -2.6176 -0.4020 0
M  V30 101 H 2.2113 -1.8951 0.8583 0
M  V30 102 C -2.0144 1.5544 1.2743 0
M  V30 103 C -2.4644 0.1236 1.3359 0
M  V30 104 S -1.2424 -0.9587 0.6360 0
M  V30 105 C -0.9683 -0.8355 -1.1140 0
M  V30 106 C 0.1005 -1.8774 -1.4665 0
M  V30 107 H -1.0828 1.7081 1.8797 0
M  V30 108 H -2.8163 2.2241 1.7156 0
M  V30 109 H -2.5729 -0.1237 2.4341 0
M  V30 110 H -3.4842 -0.0194 0.9248 0
M  V30 111 H -0.4898 0.1272 -1.3848 0
M  V30 112 H -1.8631 -0.9763 -1.7480 0
M  V30 113 H 0.3073 -1.9312 -2.5334 0
M  V30 114 H -0.2365 -2.8702 -1.0899 0
M  V30 END ATOM
M  V30 BEGIN BOND
M  V30 1 1 1 2
M  V30 2 1 2 3
M  V30 3 1 3 4
M  V30 4 1 4 5
M  V30 5 1 5 6
M  V30 6 1 6 7
M  V30 7 1 1 8
M  V30 8 1 1 9
M  V30 9 1 2 10
M  V30 10 1 3 11
M  V30 11 1 3 12
M  V30 12 1 5 13
M  V30 13 1 6 14
M  V30 14 1 6 15
M  V30 15 1 7 16
M  V30 16 1 7 17
M  V30 17 1 18 19
M  V30 18 1 19 20
M  V30 19 1 20 21
M  V30 20 1 21 22
M  V30 21 1 22 23
M  V30 22 1 23 24
M  V30 23 1 18 25
M  V30 24 1 18 26
M  V30 25 1 19 27
M  V30 26 1 20 28
M  V30 27 1 20 29
M  V30 28 1 22 30
M  V30 29 1 23 31
M  V30 30 1 23 32
M  V30 31 1 24 33
M  V30 32 1 24 34
M  V30 33 1 35 36
M  V30 34 1 36 37
M  V30 35 1 37 38
M  V30 36 1 38 39
M  V30 37 1 39 40
M  V30 38 1 40 41
M  V30 39 1 35 42
M  V30 40 1 35 43
M  V30 41 1 36 44
M  V30 42 1 37 45
M  V30 43 1 37 46
M  V30 44 1 39 47
M  V30 45 1 40 48
M  V30 46 1 40 49
M  V30 47 1 41 50
M  V30 48 1 41 51
M  V30 49 1 52 53
M  V30 50 1 53 54
M  V30 51 1 52 55
M  V30 52 1 52 56
M  V30 53 1 53 57
M  V30 54 1 54 58
M  V30 55 1 54 59
M  V30 56 1 60 61
M  V30 57 1 61 62
M  V30 58 1 60 63
M  V30 59 1 60 64
M  V30 60 1 61 65
M  V30 61 1 62 66
M  V30 62 1 62 67
M  V30 63 1 68 69
M  V30 64 1 69 70
M  V30 65 1 68 71
M  V30 66 1 68 72
M  V30 67 1 69 73
M  V30 68 1 70 74
M  V30 69 1 70 75
M  V30 70 1 76 77
M  V30 71 1 77 78
M  V30 72 1 78 79
M  V30 73 1 79 80
M  V30 74 1 76 81
M  V30 75 1 76 82
M  V30 76 1 77 83
M  V30 77 1 77 84
M  V30 78 1 79 85
M  V30 79 1 79 86
M  V30 80 1 80 87
M  V30 81 1 80 88
M  V30 82 1 89 90
M  V30 83 1 90 91
M  V30 84 1 91 92
M  V30 85 1 92 93
M  V30 86 1 89 94
M  V30 87 1 89 95
M  V30 88 1 90 96
M  V30 89 1 90 97
M  V30 90 1 92 98
M  V30 91 1 92 99
M  V30 92 1 93 100
M  V30 93 1 93 101
M  V30 94 1 102 103
M  V30 95 1 103 104
M  V30 96 1 104 105
M  V30 97 1 105 106
M  V30 98 1 102 107
M  V30 99 1 102 108
M  V30 100 1 103 109
M  V30 101 1 103 110
M  V30 102 1 105 111
M  V30 103 1 105 112
M  V30 104 1 106 113
M  V30 105 1 106 114
M  V30 106 1 1 52
M  V30 107 1 7 102
M  V30 108 1 2 80
M  V30 109 1 5 89
M  V30 110 1 18 68
M  V30 111 1 22 106
M  V30 112 1 24 60
M  V30 113 1 19 54
M  V30 114 1 35 62
M  V30 115 1 39 76
M  V30 116 1 41 70
M  V30 117 1 36 93
M  V30 END BOND
M  V30 END CTAB
M  END

$$$$
