
     RDKit          3D

  0  0  0  0  0  0  0  0  0  0999 V3000
M  V30 BEGIN CTAB
M  V30 COUNTS 114 117 0 0 0
M  V30 BEGIN ATOM
M  V30 1 C 4.0244 -3.7013 -0.3492 0
M  V30 2 C 4.0902 -3.6682 1.1641 0
M  V30 3 C 3.1477 -2.6071 1.7256 0
M  V30 4 O 1.8685 -2.9258 1.3242 0
M  V30 5 C 0.8986 -2.0386 1.7666 0
M  V30 6 C 0.2804 -1.3434 0.6057 0
M  V30 7 C -0.7863 -0.3585 1.0061 0
M  V30 8 H 4.6841 -4.5315 -0.6749 0
M  V30 9 H 4.3950 -2.7246 -0.7201 0
M  V30 10 H 3.7681 -4.6927 1.4894 0
M  V30 11 H 3.2991 -2.5448 2.8155 0
M  V30 12 H 3.4540 -1.6526 1.2132 0
M  V30 13 H 1.4408 -1.2650 2.3589 0
M  V30 14 H 1.0263 -0.8216 -0.0084 0
M  V30 15 H -0.2351 -2.0502 -0.1019 0
M  V30 16 H -0.3340 0.3659 1.7295 0
M  V30 17 H -1.1489 0.2457 0.1593 0
M  V30 18 C 2.0991 -0.4872 -4.3955 0
M  V30 19 C 2.1649 -0.4541 -2.8822 0
M  V30 20 C 1.2224 0.6070 -2.3207 0
M  V30 21 O -0.0568 0.2882 -2.7221 0
M  V30 22 C -1.0267 1.1754 -2.2797 0
M  V30 23 C -1.6449 1.8706 -3.4406 0
M  V30 24 C -2.7116 2.8555 -3.0402 0
M  V30 25 H 2.7588 -1.3175 -4.7212 0
M  V30 26 H 2.4697 0.4895 -4.7664 0
M  V30 27 H 1.8428 -1.4787 -2.5569 0
M  V30 28 H 1.3738 0.6693 -1.2308 0
M  V30 29 H 1.5287 1.5614 -2.8330 0
M  V30 30 H -0.4845 1.9491 -1.6874 0
M  V30 31 H -0.8990 2.3924 -4.0547 0
M  V30 32 H -2.1604 1.1638 -4.1482 0
M  V30 33 H -2.2593 3.5799 -2.3167 0
M  V30 34 H -3.0742 3.4597 -3.8870 0
M  V30 35 C 0.4579 0.3550 0.8080 0
M  V30 36 C 0.5237 0.3882 2.3213 0
M  V30 37 C -0.4189 1.4493 2.8829 0
M  V30 38 O -1.6981 1.1305 2.4814 0
M  V30 39 C -2.6679 2.0177 2.9238 0
M  V30 40 C -3.2862 2.7129 1.7630 0
M  V30 41 C -4.3528 3.6978 2.1633 0
M  V30 42 H 1.1175 -0.4752 0.4823 0
M  V30 43 H 0.8284 1.3318 0.4371 0
M  V30 44 H 0.2015 -0.6364 2.6467 0
M  V30 45 H -0.2674 1.5115 3.9727 0
M  V30 46 H -0.1126 2.4037 2.3705 0
M  V30 47 H -2.1258 2.7913 3.5162 0
M  V30 48 H -2.5402 3.2347 1.1489 0
M  V30 49 H -3.8017 2.0061 1.0553 0
M  V30 50 H -3.9006 4.4222 2.8868 0
M  V30 51 H -4.7154 4.3020 1.3165 0
M  V30 52 C 2.7593 -1.2628 -1.5842 0
M  V30 53 N 1.6042 -1.8303 -2.2050 0
M  V30 54 C 0.3494 -1.2735 -1.7878 0
M  V30 55 H 2.8109 -1.4507 -0.4912 0
M  V30 56 H 3.6602 -1.7249 -2.0171 0
M  V30 57 H 1.5642 -2.8534 -2.0048 0
M  V30 58 H 0.1209 -1.5595 -0.7422 0
M  V30 59 H -0.4329 -1.7676 -2.4282 0
M  V30 60 C 0.0312 1.8374 -0.6870 0
M  V30 61 N -1.1240 1.2699 -1.3078 0
M  V30 62 C -2.3788 1.8267 -0.8906 0
M  V30 63 H 0.0828 1.6495 0.4059 0
M  V30 64 H 0.9320 1.3753 -1.1199 0
M  V30 65 H -1.1640 0.2468 -1.1076 0
M  V30 66 H -2.6073 1.5407 0.1550 0
M  V30 67 H -3.1611 1.3326 -1.5311 0
M  V30 68 C 4.4024 -3.9479 1.6060 0
M  V30 69 N 3.2472 -4.5155 0.9852 0
M  V30 70 C 1.9924 -3.9586 1.4024 0
M  V30 71 H 4.4540 -4.1358 2.6990 0
M  V30 72 H 5.3032 -4.4100 1.1731 0
M  V30 73 H 3.2072 -5.5385 1.1855 0
M  V30 74 H 1.7639 -4.2447 2.4480 0
M  V30 75 H 1.2101 -4.4527 0.7620 0
M  V30 76 C -2.3441 1.2250 -5.3036 0
M  V30 77 C -1.6197 0.1090 -4.6086 0
M  V30 78 S 0.0229 0.6048 -4.1497 0
M  V30 79 C 1.1732 0.8936 -5.4709 0
M  V30 80 C 2.5059 1.2802 -4.8176 0
M  V30 81 H -2.4670 2.1083 -4.6234 0
M  V30 82 H -3.3839 0.8789 -5.5962 0
M  V30 83 H -2.2048 -0.1042 -3.6645 0
M  V30 84 H -1.6634 -0.8436 -5.1743 0
M  V30 85 H 0.9024 1.7944 -6.0577 0
M  V30 86 H 1.3205 0.0485 -6.1684 0
M  V30 87 H 3.3077 1.4247 -5.5389 0
M  V30 88 H 2.7844 0.4864 -4.0874 0
M  V30 89 C -2.1237 -0.6556 2.0576 0
M  V30 90 C -1.3993 -1.7717 2.7526 0
M  V30 91 S 0.2433 -1.2759 3.2116 0
M  V30 92 C 1.3937 -0.9870 1.8903 0
M  V30 93 C 2.7263 -0.6005 2.5436 0
M  V30 94 H -2.2466 0.2276 2.7378 0
M  V30 95 H -3.1634 -1.0017 1.7651 0
M  V30 96 H -1.9844 -1.9849 3.6967 0
M  V30 97 H -1.4430 -2.7243 2.1869 0
M  V30 98 H 1.1228 -0.0863 1.3035 0
M  V30 99 H 1.5409 -1.8322 1.1928 0
M  V30 100 H 3.5281 -0.4560 1.8223 0
M  V30 101 H 3.0048 -1.3943 3.2738 0
M  V30 102 C -5.0174 2.6038 3.1405 0
M  V30 103 C -4.2930 1.4878 3.8355 0
M  V30 104 S -2.6504 1.9836 4.2944 0
M  V30 105 C -1.5000 2.2724 2.9732 0
M  V30 106 C -0.1674 2.6590 3.6265 0
M  V30 107 H -5.1403 3.4871 3.8207 0
M  V30 108 H -6.0571 2.2577 2.8479 0
M  V30 109 H -4.8781 1.2746 4.7795 0
M  V30 110 H -4.3367 0.5352 3.2698 0
M  V30 111 H -1.7709 3.1732 2.3864 0
M  V30 112 H -1.3528 1.4273 2.2757 0
M  V30 113 H 0.6344 2.8035 2.9052 0
M  V30 114 H 0.1112 1.8652 4.3567 0
M  V30 END ATOM
M  V30 BEGIN BOND
M  V30 1 1 1 2
M  V30 2 1 2 3
M  V30 3 1 3 4
M  V30 4 1 4 5
M  V30 5 1 5 6
M  V30 6 1 6 7
M  V30 7 1 1 8
M  V30 8 1 1 9
M  V30 9 1 2 10
M  V30 10 1 3 11
M  V30 11 1 3 12
M  V30 12 1 5 13
M  V30 13 1 6 14
M  V30 14 1 6 15
M  V30 15 1 7 16
M  V30 16 1 7 17
M  V30 17 1 18 19
M  V30 18 1 19 20
M  V30 19 1 20 21
M  V30 20 1 21 22
M  V30 21 1 22 23
M  V30 22 1 23 24
M  V30 23 1 18 25
M  V30 24 1 18 26
M  V30 25 1 19 27
M  V30 26 1 20 28
M  V30 27 1 20 29
M  V30 28 1 22 30
M  V30 29 1 23 31
M  V30 30 1 23 32
M  V30 31 1 24 33
M  V30 32 1 24 34
M  V30 33 1 35 36
M  V30 34 1 36 37
M  V30 35 1 37 38
M  V30 36 1 38 39
M  V30 37 1 39 40
M  V30 38 1 40 41
M  V30 39 1 35 42
M  V30 40 1 35 43
M  V30 41 1 36 44
M  V30 42 1 37 45
M  V30 43 1 37 46
M  V30 44 1 39 47
M  V30 45 1 40 48
M  V30 46 1 40 49
M  V30 47 1 41 50
M  V30 48 1 41 51
M  V30 49 1 52 53
M  V30 50 1 53 54
M  V30 51 1 52 55
M  V30 52 1 52 56
M  V30 53 1 53 57
M  V30 54 1 54 58
M  V30 55 1 54 59
M  V30 56 1 60 61
M  V30 57 1 61 62
M  V30 58 1 60 63
M  V30 59 1 60 64
M  V30 60 1 61 65
M  V30 61 1 62 66
M  V30 62 1 62 67
M  V30 63 1 68 69
M  V30 64 1 69 70
M  V30 65 1 68 71
M  V30 66 1 68 72
M  V30 67 1 69 73
M  V30 68 1 70 74
M  V30 69 1 70 75
M  V30 70 1 76 77
M  V30 71 1 77 78
M  V30 72 1 78 79
M  V30 73 1 79 80
M  V30 74 1 76 81
M  V30 75 1 76 82
M  V30 76 1 77 83
M  V30 77 1 77 84
M  V30 78 1 79 85
M  V30 79 1 79 86
M  V30 80 1 80 87
M  V30 81 1 80 88
M  V30 82 1 89 90
M  V30 83 1 90 91
M  V30 84 1 91 92
M  V30 85 1 92 93
M  V30 86 1 89 94
M  V30 87 1 89 95
M  V30 88 1 90 96
M  V30 89 1 90 97
M  V30 90 1 92 98
M  V30 91 1 92 99
M  V30 92 1 93 100
M  V30 93 1 93 101
M  V30 94 1 102 103
M  V30 95 1 103 104
M  V30 96 1 104 105
M  V30 97 1 105 106
M  V30 98 1 102 107
M  V30 99 1 102 108
M  V30 100 1 103 109
M  V30 101 1 103 110
M  V30 102 1 105 111
M  V30 103 1 105 112
M  V30 104 1 106 113
M  V30 105 1 106 114
M  V30 106 1 1 52
M  V30 107 1 2 89
M  V30 108 1 5 68
M  V30 109 1 7 70
M  V30 110 1 18 54
M  V30 111 1 19 60
M  V30 112 1 22 76
M  V30 113 1 24 80
M  V30 114 1 35 102
M  V30 115 1 36 62
M  V30 116 1 39 93
M  V30 117 1 41 106
M  V30 END BOND
M  V30 END CTAB
M  END

$$$$
