
     RDKit          3D

  0  0  0  0  0  0  0  0  0  0999 V3000
M  V30 BEGIN CTAB
M  V30 COUNTS 114 117 0 0 0
M  V30 BEGIN ATOM
M  V30 1 C -1.5224 -1.0325 2.1370 0
M  V30 2 C -2.3825 -0.3908 1.0674 0
M  V30 3 C -1.6531 0.7800 0.4141 0
M  V30 4 O -0.4961 0.2913 -0.1529 0
M  V30 5 C 0.2739 1.2543 -0.7879 0
M  V30 6 C 1.5766 1.4055 -0.0858 0
M  V30 7 C 2.4723 2.4383 -0.7176 0
M  V30 8 H -2.0921 -1.9050 2.5175 0
M  V30 9 H -1.3635 -0.2781 2.9335 0
M  V30 10 H -2.5681 -1.2060 0.3188 0
M  V30 11 H -2.3457 1.2802 -0.2821 0
M  V30 12 H -1.3723 1.4553 1.2699 0
M  V30 13 H -0.2771 2.2157 -0.6635 0
M  V30 14 H 1.4472 1.6562 0.9754 0
M  V30 15 H 2.1859 0.4596 -0.0884 0
M  V30 16 H 1.9097 3.4050 -0.7592 0
M  V30 17 H 3.3772 2.6399 -0.1227 0
M  V30 18 C 0.4433 -1.2814 -2.4604 0
M  V30 19 C -0.9230 -0.6309 -2.3854 0
M  V30 20 C -1.5260 -0.7930 -0.9927 0
M  V30 21 O -0.6750 -0.1888 -0.0929 0
M  V30 22 C -1.1012 -0.2597 1.2250 0
M  V30 23 C -0.1478 -1.0770 2.0226 0
M  V30 24 C -0.5439 -1.2022 3.4703 0
M  V30 25 H 0.8380 -1.0686 -3.4750 0
M  V30 26 H 0.3029 -2.3698 -2.3041 0
M  V30 27 H -0.7394 0.4529 -2.6111 0
M  V30 28 H -2.5550 -0.3986 -1.0079 0
M  V30 29 H -1.5144 -1.9027 -0.8035 0
M  V30 30 H -2.0678 -0.8152 1.2032 0
M  V30 31 H -0.0190 -2.0849 1.6063 0
M  V30 32 H 0.8881 -0.6384 2.0473 0
M  V30 33 H -1.5814 -1.6202 3.5099 0
M  V30 34 H 0.0897 -1.9113 4.0264 0
M  V30 35 C 0.9318 -2.7142 0.2901 0
M  V30 36 C 1.6773 -1.7354 1.1742 0
M  V30 37 C 1.8271 -0.3834 0.4818 0
M  V30 38 O 0.5624 0.0979 0.2209 0
M  V30 39 C 0.5457 1.3316 -0.4126 0
M  V30 40 C -0.0444 1.1955 -1.7714 0
M  V30 41 C -0.0967 2.4977 -2.5263 0
M  V30 42 H 0.8103 -3.6441 0.8827 0
M  V30 43 H 1.5539 -2.8901 -0.6104 0
M  V30 44 H 1.0437 -1.6379 2.0952 0
M  V30 45 H 2.4589 0.2646 1.1106 0
M  V30 46 H 2.3277 -0.6183 -0.4988 0
M  V30 47 H 1.6145 1.6188 -0.5486 0
M  V30 48 H 0.4919 0.4576 -2.3826 0
M  V30 49 H -1.1102 0.8353 -1.7499 0
M  V30 50 H 0.9405 2.9165 -2.5654 0
M  V30 51 H -0.4119 2.3712 -3.5742 0
M  V30 52 C -0.4034 0.8189 1.2036 0
M  V30 53 N -0.2103 -0.5771 1.4396 0
M  V30 54 C -0.7885 -1.4493 0.4580 0
M  V30 55 H -1.4667 1.1334 1.2584 0
M  V30 56 H 0.1250 1.3889 1.9837 0
M  V30 57 H -0.6250 -0.8388 2.3604 0
M  V30 58 H -1.8944 -1.4323 0.5199 0
M  V30 59 H -0.4722 -2.4895 0.7485 0
M  V30 60 C -0.5755 -1.5954 0.3026 0
M  V30 61 N 0.7422 -1.2343 0.7210 0
M  V30 62 C 1.5062 -0.4894 -0.2383 0
M  V30 63 H -0.5892 -2.3007 -0.5547 0
M  V30 64 H -1.0839 -2.1117 1.1318 0
M  V30 65 H 1.2890 -2.0946 0.9428 0
M  V30 66 H 1.7856 -1.1280 -1.0994 0
M  V30 67 H 2.4682 -0.2194 0.2795 0
M  V30 68 C -0.9991 -1.2312 -0.5978 0
M  V30 69 N 0.2592 -1.2874 -1.2727 0
M  V30 70 C 1.0841 -0.1225 -1.1273 0
M  V30 71 H -1.6811 -0.4522 -0.9985 0
M  V30 72 H -1.5193 -2.1923 -0.7327 0
M  V30 73 H 0.1040 -1.4241 -2.2953 0
M  V30 74 H 0.6510 0.7367 -1.6764 0
M  V30 75 H 2.0546 -0.3684 -1.6413 0
M  V30 76 C 1.4084 2.6589 0.6085 0
M  V30 77 C 0.4899 2.8252 -0.5672 0
M  V30 78 S -0.5419 1.3948 -0.7762 0
M  V30 79 C 0.2613 -0.1096 -1.2701 0
M  V30 80 C -0.8370 -1.1719 -1.4028 0
M  V30 81 H 0.8257 2.5567 1.5613 0
M  V30 82 H 2.0633 3.5791 0.7121 0
M  V30 83 H -0.1716 3.7100 -0.3251 0
M  V30 84 H 1.0276 3.1336 -1.4865 0
M  V30 85 H 0.9104 -0.5085 -0.4649 0
M  V30 86 H 0.8511 -0.0512 -2.2034 0
M  V30 87 H -0.4629 -2.1288 -1.7610 0
M  V30 88 H -1.6219 -0.7840 -2.0916 0
M  V30 89 C 0.2813 2.5439 1.5303 0
M  V30 90 C 1.6546 1.9377 1.5351 0
M  V30 91 S 1.7827 0.6422 0.3268 0
M  V30 92 C 0.8352 -0.8297 0.6240 0
M  V30 93 C 1.1357 -1.7881 -0.5351 0
M  V30 94 H 0.0573 3.0216 0.5405 0
M  V30 95 H 0.2229 3.3584 2.3174 0
M  V30 96 H 2.3647 2.7684 1.2441 0
M  V30 97 H 1.9857 1.6429 2.5514 0
M  V30 98 H -0.2529 -0.6406 0.5273 0
M  V30 99 H 1.0224 -1.3301 1.5920 0
M  V30 100 H 0.6489 -2.7551 -0.4253 0
M  V30 101 H 2.2395 -1.9196 -0.6073 0
M  V30 102 C -1.3445 2.4658 -0.0732 0
M  V30 103 C -2.5123 1.5236 -0.1204 0
M  V30 104 S -2.0324 -0.1106 0.3829 0
M  V30 105 C -0.9294 -0.9913 -0.6943 0
M  V30 106 C -0.6930 -2.3651 -0.0547 0
M  V30 107 H -0.9534 2.5674 0.9731 0
M  V30 108 H -1.6747 3.4972 -0.4101 0
M  V30 109 H -3.2648 1.9199 0.6250 0
M  V30 110 H -3.0483 1.5593 -1.0903 0
M  V30 111 H 0.0807 -0.5345 -0.7055 0
M  V30 112 H -1.2753 -1.1100 -1.7377 0
M  V30 113 H -0.0718 -3.0177 -0.6647 0
M  V30 114 H -1.6821 -2.8418 0.1334 0
M  V30 END ATOM
M  V30 BEGIN BOND
M  V30 1 1 1 2
M  V30 2 1 2 3
M  V30 3 1 3 4
M  V30 4 1 4 5
M  V30 5 1 5 6
M  V30 6 1 6 7
M  V30 7 1 1 8
M  V30 8 1 1 9
M  V30 9 1 2 10
M  V30 10 1 3 11
M  V30 11 1 3 12
M  V30 12 1 5 13
M  V30 13 1 6 14
M  V30 14 1 6 15
M  V30 15 1 7 16
M  V30 16 1 7 17
M  V30 17 1 18 19
M  V30 18 1 19 20
M  V30 19 1 20 21
M  V30 20 1 21 22
M  V30 21 1 22 23
M  V30 22 1 23 24
M  V30 23 1 18 25
M  V30 24 1 18 26
M  V30 25 1 19 27
M  V30 26 1 20 28
M  V30 27 1 20 29
M  V30 28 1 22 30
M  V30 29 1 23 31
M  V30 30 1 23 32
M  V30 31 1 24 33
M  V30 32 1 24 34
M  V30 33 1 35 36
M  V30 34 1 36 37
M  V30 35 1 37 38
M  V30 36 1 38 39
M  V30 37 1 39 40
M  V30 38 1 40 41
M  V30 39 1 35 42
M  V30 40 1 35 43
M  V30 41 1 36 44
M  V30 42 1 37 45
M  V30 43 1 37 46
M  V30 44 1 39 47
M  V30 45 1 40 48
M  V30 46 1 40 49
M  V30 47 1 41 50
M  V30 48 1 41 51
M  V30 49 1 52 53
M  V30 50 1 53 54
M  V30 51 1 52 55
M  V30 52 1 52 56
M  V30 53 1 53 57
M  V30 54 1 54 58
M  V30 55 1 54 59
M  V30 56 1 60 61
M  V30 57 1 61 62
M  V30 58 1 60 63
M  V30 59 1 60 64
M  V30 60 1 61 65
M  V30 61 1 62 66
M  V30 62 1 62 67
M  V30 63 1 68 69
M  V30 64 1 69 70
M  V30 65 1 68 71
M  V30 66 1 68 72
M  V30 67 1 69 73
M  V30 68 1 70 74
M  V30 69 1 70 75
M  V30 70 1 76 77
M  V30 71 1 77 78
M  V30 72 1 78 79
M  V30 73 1 79 80
M  V30 74 1 76 81
M  V30 75 1 76 82
M  V30 76 1 77 83
M  V30 77 1 77 84
M  V30 78 1 79 85
M  V30 79 1 79 86
M  V30 80 1 80 87
M  V30 81 1 80 88
M  V30 82 1 89 90
M  V30 83 1 90 91
M  V30 84 1 91 92
M  V30 85 1 92 93
M  V30 86 1 89 94
M  V30 87 1 89 95
M  V30 88 1 90 96
M  V30 89 1 90 97
M  V30 90 1 92 98
M  V30 91 1 92 99
M  V30 92 1 93 100
M  V30 93 1 93 101
M  V30 94 1 102 103
M  V30 95 1 103 104
M  V30 96 1 104 105
M  V30 97 1 105 106
M  V30 98 1 102 107
M  V30 99 1 102 108
M  V30 100 1 103 109
M  V30 101 1 103 110
M  V30 102 1 105 111
M  V30 103 1 105 112
M  V30 104 1 106 113
M  V30 105 1 106 114
M  V30 106 1 1 52
M  V30 107 1 2 102
M  V30 108 1 5 76
M  V30 109 1 7 89
M  V30 110 1 18 68
M  V30 111 1 19 106
M  V30 112 1 24 60
M  V30 113 1 22 54
M  V30 114 1 35 62
M  V30 115 1 39 80
M  V30 116 1 41 70
M  V30 117 1 36 93
M  V30 END BOND
M  V30 END CTAB
M  END

$$$$
