
     RDKit          3D

  0  0  0  0  0  0  0  0  0  0999 V3000
M  V30 BEGIN CTAB
M  V30 COUNTS 114 117 0 0 0
M  V30 BEGIN ATOM
M  V30 1 C 2.0506 -1.1320 -1.2450 0
M  V30 2 C 2.1164 -1.0988 0.2683 0
M  V30 3 C 1.1738 -0.0378 0.8299 0
M  V30 4 O -0.1054 -0.3565 0.4284 0
M  V30 5 C -1.0752 0.5307 0.8708 0
M  V30 6 C -1.6934 1.2259 -0.2900 0
M  V30 7 C -2.7601 2.2108 0.1103 0
M  V30 8 H 2.7102 -1.9622 -1.5706 0
M  V30 9 H 2.4211 -0.1553 -1.6158 0
M  V30 10 H 1.7942 -2.1234 0.5937 0
M  V30 11 H 1.3253 0.0245 1.9197 0
M  V30 12 H 1.4802 0.9167 0.3175 0
M  V30 13 H -0.5331 1.3043 1.4632 0
M  V30 14 H -0.9475 1.7477 -0.9041 0
M  V30 15 H -2.2089 0.5191 -0.9977 0
M  V30 16 H -2.3078 2.9352 0.8338 0
M  V30 17 H -3.1227 2.8150 -0.7364 0
M  V30 18 C 2.7728 -1.7866 -1.7739 0
M  V30 19 C 2.8386 -1.7535 -0.2606 0
M  V30 20 C 1.8961 -0.6924 0.3010 0
M  V30 21 O 0.6169 -1.0111 -0.1005 0
M  V30 22 C -0.3530 -0.1239 0.3419 0
M  V30 23 C -0.9712 0.5713 -0.8189 0
M  V30 24 C -2.0379 1.5562 -0.4186 0
M  V30 25 H 3.4325 -2.6168 -2.0996 0
M  V30 26 H 3.1434 -0.8099 -2.1448 0
M  V30 27 H 2.5165 -2.7780 0.0648 0
M  V30 28 H 2.0475 -0.6301 1.3908 0
M  V30 29 H 2.2024 0.2621 -0.2114 0
M  V30 30 H 0.1892 0.6497 0.9343 0
M  V30 31 H -0.2253 1.0931 -1.4330 0
M  V30 32 H -1.4867 -0.1355 -1.5266 0
M  V30 33 H -1.5856 2.2806 0.3049 0
M  V30 34 H -2.4005 2.1604 -1.2654 0
M  V30 35 C 1.3426 -0.4155 -0.7802 0
M  V30 36 C 1.4084 -0.3824 0.7331 0
M  V30 37 C 0.4659 0.6787 1.2947 0
M  V30 38 O -0.8133 0.3599 0.8932 0
M  V30 39 C -1.7831 1.2472 1.3356 0
M  V30 40 C -2.4014 1.9423 0.1748 0
M  V30 41 C -3.4680 2.9273 0.5751 0
M  V30 42 H 2.0023 -1.2457 -1.1059 0
M  V30 43 H 1.7132 0.5612 -1.1511 0
M  V30 44 H 1.0863 -1.4070 1.0585 0
M  V30 45 H 0.6174 0.7410 2.3845 0
M  V30 46 H 0.7722 1.6331 0.7823 0
M  V30 47 H -1.2410 2.0208 1.9280 0
M  V30 48 H -1.6555 2.4641 -0.4393 0
M  V30 49 H -2.9169 1.2356 -0.5329 0
M  V30 50 H -3.0158 3.6517 1.2986 0
M  V30 51 H -3.8306 3.5314 -0.2716 0
M  V30 52 C 1.0011 0.6633 0.2575 0
M  V30 53 N -0.1541 0.0957 -0.3633 0
M  V30 54 C -1.4089 0.6526 0.0539 0
M  V30 55 H 1.0527 0.4754 1.3505 0
M  V30 56 H 1.9019 0.2012 -0.1754 0
M  V30 57 H -0.1941 -0.9273 -0.1630 0
M  V30 58 H -1.6374 0.3665 1.0995 0
M  V30 59 H -2.1912 0.1585 -0.5865 0
M  V30 60 C 2.2931 -0.7563 -0.6454 0
M  V30 61 N 1.1380 -1.3238 -1.2662 0
M  V30 62 C -0.1169 -0.7670 -0.8490 0
M  V30 63 H 2.3447 -0.9442 0.4476 0
M  V30 64 H 3.1939 -1.2184 -1.0783 0
M  V30 65 H 1.0979 -2.3469 -1.0659 0
M  V30 66 H -0.3454 -1.0531 0.1966 0
M  V30 67 H -0.8992 -1.2611 -1.4894 0
M  V30 68 C 0.3080 1.1390 0.7315 0
M  V30 69 N -0.8472 0.5714 0.1107 0
M  V30 70 C -2.1020 1.1283 0.5279 0
M  V30 71 H 0.3596 0.9510 1.8245 0
M  V30 72 H 1.2088 0.6769 0.2986 0
M  V30 73 H -0.8872 -0.4516 0.3109 0
M  V30 74 H -2.3305 0.8422 1.5735 0
M  V30 75 H -2.8843 0.6341 -0.1125 0
M  V30 76 C -1.8124 -0.2055 -0.3777 0
M  V30 77 C -1.0880 -1.3216 0.3173 0
M  V30 78 S 0.5545 -0.8258 0.7762 0
M  V30 79 C 1.7049 -0.5369 -0.5450 0
M  V30 80 C 3.0376 -0.1504 0.1083 0
M  V30 81 H -1.9353 0.6777 0.3025 0
M  V30 82 H -2.8522 -0.5516 -0.6703 0
M  V30 83 H -1.6732 -1.5348 1.2614 0
M  V30 84 H -1.1317 -2.2742 -0.2484 0
M  V30 85 H 1.4341 0.3638 -1.1318 0
M  V30 86 H 1.8522 -1.3821 -1.2425 0
M  V30 87 H 3.8394 -0.0059 -0.6130 0
M  V30 88 H 3.3161 -0.9442 0.8385 0
M  V30 89 C -2.8110 0.3205 0.1177 0
M  V30 90 C -2.0866 -0.7955 0.8128 0
M  V30 91 S -0.4441 -0.2997 1.2717 0
M  V30 92 C 0.7063 -0.0109 -0.0496 0
M  V30 93 C 2.0390 0.3757 0.6037 0
M  V30 94 H -2.9339 1.2037 0.7980 0
M  V30 95 H -3.8508 -0.0256 -0.1748 0
M  V30 96 H -2.6718 -1.0087 1.7568 0
M  V30 97 H -2.1303 -1.7481 0.2470 0
M  V30 98 H 0.4355 0.8899 -0.6363 0
M  V30 99 H 0.8536 -0.8560 -0.7470 0
M  V30 100 H 2.8408 0.5202 -0.1175 0
M  V30 101 H 2.3175 -0.4181 1.3340 0
M  V30 102 C -2.1089 -0.3143 -0.6465 0
M  V30 103 C -1.3845 -1.4304 0.0486 0
M  V30 104 S 0.2581 -0.9345 0.5075 0
M  V30 105 C 1.4085 -0.6457 -0.8138 0
M  V30 106 C 2.7411 -0.2591 -0.1605 0
M  V30 107 H -2.2317 0.5689 0.0338 0
M  V30 108 H -3.1486 -0.6604 -0.9390 0
M  V30 109 H -1.9696 -1.6436 0.9926 0
M  V30 110 H -1.4281 -2.3829 -0.5172 0
M  V30 111 H 1.1376 0.2551 -1.4005 0
M  V30 112 H 1.5557 -1.4909 -1.5112 0
M  V30 113 H 3.5430 -0.1147 -0.8817 0
M  V30 114 H 3.0197 -1.0529 0.5698 0
M  V30 END ATOM
M  V30 BEGIN BOND
M  V30 1 1 1 2
M  V30 2 1 2 3
M  V30 3 1 3 4
M  V30 4 1 4 5
M  V30 5 1 5 6
M  V30 6 1 6 7
M  V30 7 1 1 8
M  V30 8 1 1 9
M  V30 9 1 2 10
M  V30 10 1 3 11
M  V30 11 1 3 12
M  V30 12 1 5 13
M  V30 13 1 6 14
M  V30 14 1 6 15
M  V30 15 1 7 16
M  V30 16 1 7 17
M  V30 17 1 18 19
M  V30 18 1 19 20
M  V30 19 1 20 21
M  V30 20 1 21 22
M  V30 21 1 22 23
M  V30 22 1 23 24
M  V30 23 1 18 25
M  V30 24 1 18 26
M  V30 25 1 19 27
M  V30 26 1 20 28
M  V30 27 1 20 29
M  V30 28 1 22 30
M  V30 29 1 23 31
M  V30 30 1 23 32
M  V30 31 1 24 33
M  V30 32 1 24 34
M  V30 33 1 35 36
M  V30 34 1 36 37
M  V30 35 1 37 38
M  V30 36 1 38 39
M  V30 37 1 39 40
M  V30 38 1 40 41
M  V30 39 1 35 42
M  V30 40 1 35 43
M  V30 41 1 36 44
M  V30 42 1 37 45
M  V30 43 1 37 46
M  V30 44 1 39 47
M  V30 45 1 40 48
M  V30 46 1 40 49
M  V30 47 1 41 50
M  V30 48 1 41 51
M  V30 49 1 52 53
M  V30 50 1 53 54
M  V30 51 1 52 55
M  V30 52 1 52 56
M  V30 53 1 53 57
M  V30 54 1 54 58
M  V30 55 1 54 59
M  V30 56 1 60 61
M  V30 57 1 61 62
M  V30 58 1 60 63
M  V30 59 1 60 64
M  V30 60 1 61 65
M  V30 61 1 62 66
M  V30 62 1 62 67
M  V30 63 1 68 69
M  V30 64 1 69 70
M  V30 65 1 68 71
M  V30 66 1 68 72
M  V30 67 1 69 73
M  V30 68 1 70 74
M  V30 69 1 70 75
M  V30 70 1 76 77
M  V30 71 1 77 78
M  V30 72 1 78 79
M  V30 73 1 79 80
M  V30 74 1 76 81
M  V30 75 1 76 82
M  V30 76 1 77 83
M  V30 77 1 77 84
M  V30 78 1 79 85
M  V30 79 1 79 86
M  V30 80 1 80 87
M  V30 81 1 80 88
M  V30 82 1 89 90
M  V30 83 1 90 91
M  V30 84 1 91 92
M  V30 85 1 92 93
M  V30 86 1 89 94
M  V30 87 1 89 95
M  V30 88 1 90 96
M  V30 89 1 90 97
M  V30 90 1 92 98
M  V30 91 1 92 99
M  V30 92 1 93 100
M  V30 93 1 93 101
M  V30 94 1 102 103
M  V30 95 1 103 104
M  V30 96 1 104 105
M  V30 97 1 105 106
M  V30 98 1 102 107
M  V30 99 1 102 108
M  V30 100 1 103 109
M  V30 101 1 103 110
M  V30 102 1 105 111
M  V30 103 1 105 112
M  V30 104 1 106 113
M  V30 105 1 106 114
M  V30 106 1 1 52
M  V30 107 1 2 76
M  V30 108 1 5 89
M  V30 109 1 7 102
M  V30 110 1 18 80
M  V30 111 1 19 60
M  V30 112 1 22 62
M  V30 113 1 24 106
M  V30 114 1 35 93
M  V30 115 1 36 68
M  V30 116 1 39 70
M  V30 117 1 41 54
M  V30 END BOND
M  V30 END CTAB
M  END

$$$$
