
     RDKit          3D

  0  0  0  0  0  0  0  0  0  0999 V3000
M  V30 BEGIN CTAB
M  V30 COUNTS 114 117 0 0 0
M  V30 BEGIN ATOM
M  V30 1 C 2.3769 -0.6763 -1.2631 0
M  V30 2 C 2.4427 -0.6431 0.2502 0
M  V30 3 C 1.5002 0.4180 0.8117 0
M  V30 4 O 0.2210 0.0992 0.4103 0
M  V30 5 C -0.7488 0.9864 0.8527 0
M  V30 6 C -1.3671 1.6816 -0.3081 0
M  V30 7 C -2.4337 2.6665 0.0922 0
M  V30 8 H 3.0366 -1.5065 -1.5888 0
M  V30 9 H 2.7475 0.3005 -1.6340 0
M  V30 10 H 2.1206 -1.6677 0.5755 0
M  V30 11 H 1.6517 0.4802 1.9016 0
M  V30 12 H 1.8065 1.3724 0.2994 0
M  V30 13 H -0.2067 1.7601 1.4450 0
M  V30 14 H -0.6212 2.2034 -0.9222 0
M  V30 15 H -1.8826 0.9748 -1.0158 0
M  V30 16 H -1.9815 3.3909 0.8157 0
M  V30 17 H -2.7963 3.2707 -0.7546 0
M  V30 18 C 1.3572 -1.0905 -1.2631 0
M  V30 19 C 1.4230 -1.0573 0.2502 0
M  V30 20 C 0.4805 0.0037 0.8117 0
M  V30 21 O -0.7988 -0.3150 0.4103 0
M  V30 22 C -1.7686 0.5722 0.8527 0
M  V30 23 C -2.3868 1.2674 -0.3081 0
M  V30 24 C -3.4535 2.2523 0.0922 0
M  V30 25 H 2.0168 -1.9207 -1.5888 0
M  V30 26 H 1.7277 -0.1137 -1.6340 0
M  V30 27 H 1.1008 -2.0819 0.5755 0
M  V30 28 H 0.6319 0.0660 1.9016 0
M  V30 29 H 0.7868 0.9582 0.2994 0
M  V30 30 H -1.2265 1.3458 1.4450 0
M  V30 31 H -1.6409 1.7892 -0.9222 0
M  V30 32 H -2.9023 0.5606 -1.0158 0
M  V30 33 H -3.0012 2.9767 0.8157 0
M  V30 34 H -3.8161 2.8565 -0.7546 0
M  V30 35 C 2.3769 -1.5047 -1.2631 0
M  V30 36 C 2.4427 -1.4716 0.2502 0
M  V30 37 C 1.5002 -0.4105 0.8117 0
M  V30 38 O 0.2210 -0.7292 0.4103 0
M  V30 39 C -0.7488 0.1580 0.8527 0
M  V30 40 C -1.3671 0.8532 -0.3081 0
M  V30 41 C -2.4337 1.8381 0.0922 0
M  V30 42 H 3.0366 -2.3349 -1.5888 0
M  V30 43 H 2.7475 -0.5280 -1.6340 0
M  V30 44 H 2.1206 -2.4961 0.5755 0
M  V30 45 H 1.6517 -0.3482 1.9016 0
M  V30 46 H 1.8065 0.5440 0.2994 0
M  V30 47 H -0.2067 0.9316 1.4450 0
M  V30 48 H -0.6212 1.3750 -0.9222 0
M  V30 49 H -1.8826 0.1464 -1.0158 0
M  V30 50 H -1.9815 2.5625 0.8157 0
M  V30 51 H -2.7963 2.4423 -0.7546 0
M  V30 52 C 0.3363 0.1745 0.8181 0
M  V30 53 N -0.8188 -0.3930 0.1973 0
M  V30 54 C -2.0737 0.1638 0.6145 0
M  V30 55 H 0.3879 -0.0134 1.9111 0
M  V30 56 H 1.2371 -0.2876 0.3852 0
M  V30 57 H -0.8589 -1.4161 0.3976 0
M  V30 58 H -2.3022 -0.1222 1.6601 0
M  V30 59 H -2.8560 -0.3303 -0.0259 0
M  V30 60 C 1.0398 1.1745 -0.6485 0
M  V30 61 N -0.1153 0.6070 -1.2693 0
M  V30 62 C -1.3701 1.1638 -0.8521 0
M  V30 63 H 1.0914 0.9866 0.4444 0
M  V30 64 H 1.9407 0.7124 -1.0815 0
M  V30 65 H -0.1553 -0.4161 -1.0691 0
M  V30 66 H -1.5987 0.8778 0.1934 0
M  V30 67 H -2.1525 0.6697 -1.4926 0
M  V30 68 C 1.7433 0.1745 0.3038 0
M  V30 69 N 0.5882 -0.3930 -0.3170 0
M  V30 70 C -0.6666 0.1638 0.1002 0
M  V30 71 H 1.7949 -0.0134 1.3967 0
M  V30 72 H 2.6442 -0.2876 -0.1291 0
M  V30 73 H 0.5482 -1.4161 -0.1168 0
M  V30 74 H -0.8952 -0.1222 1.1458 0
M  V30 75 H -1.4489 -0.3303 -0.5403 0
M  V30 76 C -1.8866 0.1416 -0.5270 0
M  V30 77 C -1.1622 -0.9745 0.1680 0
M  V30 78 S 0.4803 -0.4786 0.6269 0
M  V30 79 C 1.6307 -0.1898 -0.6943 0
M  V30 80 C 2.9634 0.1968 -0.0410 0
M  V30 81 H -2.0095 1.0248 0.1532 0
M  V30 82 H -2.9264 -0.2045 -0.8196 0
M  V30 83 H -1.7474 -1.1876 1.1120 0
M  V30 84 H -1.2059 -1.9270 -0.3977 0
M  V30 85 H 1.3599 0.7110 -1.2811 0
M  V30 86 H 1.7780 -1.0349 -1.3918 0
M  V30 87 H 3.7652 0.3412 -0.7623 0
M  V30 88 H 3.2419 -0.5970 0.6892 0
M  V30 89 C -1.8866 0.1416 0.5214 0
M  V30 90 C -1.1622 -0.9745 1.2164 0
M  V30 91 S 0.4803 -0.4786 1.6753 0
M  V30 92 C 1.6307 -0.1898 0.3541 0
M  V30 93 C 2.9634 0.1968 1.0074 0
M  V30 94 H -2.0095 1.0248 1.2016 0
M  V30 95 H -2.9264 -0.2045 0.2288 0
M  V30 96 H -1.7474 -1.1876 2.1605 0
M  V30 97 H -1.2059 -1.9270 0.6507 0
M  V30 98 H 1.3599 0.7110 -0.2327 0
M  V30 99 H 1.7780 -1.0349 -0.3434 0
M  V30 100 H 3.7652 0.3412 0.2861 0
M  V30 101 H 3.2419 -0.5970 1.7376 0
M  V30 102 C -2.5902 -0.8584 -0.9933 0
M  V30 103 C -1.8657 -1.9745 -0.2983 0
M  V30 104 S -0.2232 -1.4786 0.1606 0
M  V30 105 C 0.9272 -1.1898 -1.1606 0
M  V30 106 C 2.2599 -0.8032 -0.5073 0
M  V30 107 H -2.7130 0.0248 -0.3131 0
M  V30 108 H -3.6299 -1.2045 -1.2859 0
M  V30 109 H -2.4509 -2.1876 0.6457 0
M  V30 110 H -1.9094 -2.9270 -0.8640 0
M  V30 111 H 0.6563 -0.2890 -1.7474 0
M  V30 112 H 1.0744 -2.0349 -1.8581 0
M  V30 113 H 3.0617 -0.6588 -1.2286 0
M  V30 114 H 2.5384 -1.5970 0.2229 0
M  V30 END ATOM
M  V30 BEGIN BOND
M  V30 1 1 1 2
M  V30 2 1 2 3
M  V30 3 1 3 4
M  V30 4 1 4 5
M  V30 5 1 5 6
M  V30 6 1 6 7
M  V30 7 1 1 8
M  V30 8 1 1 9
M  V30 9 1 2 10
M  V30 10 1 3 11
M  V30 11 1 3 12
M  V30 12 1 5 13
M  V30 13 1 6 14
M  V30 14 1 6 15
M  V30 15 1 7 16
M  V30 16 1 7 17
M  V30 17 1 18 19
M  V30 18 1 19 20
M  V30 19 1 20 21
M  V30 20 1 21 22
M  V30 21 1 22 23
M  V30 22 1 23 24
M  V30 23 1 18 25
M  V30 24 1 18 26
M  V30 25 1 19 27
M  V30 26 1 20 28
M  V30 27 1 20 29
M  V30 28 1 22 30
M  V30 29 1 23 31
M  V30 30 1 23 32
M  V30 31 1 24 33
M  V30 32 1 24 34
M  V30 33 1 35 36
M  V30 34 1 36 37
M  V30 35 1 37 38
M  V30 36 1 38 39
M  V30 37 1 39 40
M  V30 38 1 40 41
M  V30 39 1 35 42
M  V30 40 1 35 43
M  V30 41 1 36 44
M  V30 42 1 37 45
M  V30 43 1 37 46
M  V30 44 1 39 47
M  V30 45 1 40 48
M  V30 46 1 40 49
M  V30 47 1 41 50
M  V30 48 1 41 51
M  V30 49 1 52 53
M  V30 50 1 53 54
M  V30 51 1 52 55
M  V30 52 1 52 56
M  V30 53 1 53 57
M  V30 54 1 54 58
M  V30 55 1 54 59
M  V30 56 1 60 61
M  V30 57 1 61 62
M  V30 58 1 60 63
M  V30 59 1 60 64
M  V30 60 1 61 65
M  V30 61 1 62 66
M  V30 62 1 62 67
M  V30 63 1 68 69
M  V30 64 1 69 70
M  V30 65 1 68 71
M  V30 66 1 68 72
M  V30 67 1 69 73
M  V30 68 1 70 74
M  V30 69 1 70 75
M  V30 70 1 76 77
M  V30 71 1 77 78
M  V30 72 1 78 79
M  V30 73 1 79 80
M  V30 74 1 76 81
M  V30 75 1 76 82
M  V30 76 1 77 83
M  V30 77 1 77 84
M  V30 78 1 79 85
M  V30 79 1 79 86
M  V30 80 1 80 87
M  V30 81 1 80 88
M  V30 82 1 89 90
M  V30 83 1 90 91
M  V30 84 1 91 92
M  V30 85 1 92 93
M  V30 86 1 89 94
M  V30 87 1 89 95
M  V30 88 1 90 96
M  V30 89 1 90 97
M  V30 90 1 92 98
M  V30 91 1 92 99
M  V30 92 1 93 100
M  V30 93 1 93 101
M  V30 94 1 102 103
M  V30 95 1 103 104
M  V30 96 1 104 105
M  V30 97 1 105 106
M  V30 98 1 102 107
M  V30 99 1 102 108
M  V30 100 1 103 109
M  V30 101 1 103 110
M  V30 102 1 105 111
M  V30 103 1 105 112
M  V30 104 1 106 113
M  V30 105 1 106 114
M  V30 106 1 1 60
M  V30 107 1 2 68
M  V30 108 1 5 89
M  V30 109 1 7 76
M  V30 110 1 18 62
M  V30 111 1 19 102
M  V30 112 1 22 52
M  V30 113 1 24 54
M  V30 114 1 35 80
M  V30 115 1 36 106
M  V30 116 1 39 70
M  V30 117 1 41 93
M  V30 END BOND
M  V30 END CTAB
M  END

$$$$
