
     RDKit          3D

  0  0  0  0  0  0  0  0  0  0999 V3000
M  V30 BEGIN CTAB
M  V30 COUNTS 114 117 0 0 0
M  V30 BEGIN ATOM
M  V30 1 C 2.1745 -0.5854 -1.1526 0
M  V30 2 C 2.2403 -0.5523 0.3607 0
M  V30 3 C 1.2978 0.5088 0.9223 0
M  V30 4 O 0.0186 0.1901 0.5208 0
M  V30 5 C -0.9512 1.0773 0.9632 0
M  V30 6 C -1.5695 1.7725 -0.1976 0
M  V30 7 C -2.6361 2.7574 0.2027 0
M  V30 8 H 2.8342 -1.4156 -1.4783 0
M  V30 9 H 2.5451 0.3913 -1.5235 0
M  V30 10 H 1.9182 -1.5768 0.6861 0
M  V30 11 H 1.4493 0.5711 2.0121 0
M  V30 12 H 1.6041 1.4633 0.4099 0
M  V30 13 H -0.4091 1.8509 1.5556 0
M  V30 14 H -0.8236 2.2943 -0.8117 0
M  V30 15 H -2.0850 1.0657 -0.9053 0
M  V30 16 H -2.1839 3.4818 0.9262 0
M  V30 17 H -2.9987 3.3616 -0.6440 0
M  V30 18 C 1.9133 -1.4248 -0.8455 0
M  V30 19 C 1.9791 -1.3916 0.6678 0
M  V30 20 C 1.0365 -0.3306 1.2293 0
M  V30 21 O -0.2427 -0.6493 0.8279 0
M  V30 22 C -1.2125 0.2379 1.2703 0
M  V30 23 C -1.8308 0.9331 0.1094 0
M  V30 24 C -2.8974 1.9180 0.5098 0
M  V30 25 H 2.5729 -2.2550 -1.1712 0
M  V30 26 H 2.2838 -0.4480 -1.2164 0
M  V30 27 H 1.6569 -2.4162 0.9931 0
M  V30 28 H 1.1880 -0.2683 2.3192 0
M  V30 29 H 1.3428 0.6239 0.7169 0
M  V30 30 H -0.6704 1.0115 1.8626 0
M  V30 31 H -1.0848 1.4549 -0.5047 0
M  V30 32 H -2.3463 0.2263 -0.5982 0
M  V30 33 H -2.4452 2.6424 1.2332 0
M  V30 34 H -3.2600 2.5222 -0.3370 0
M  V30 35 C 2.1223 -1.3022 -1.7446 0
M  V30 36 C 2.1881 -1.2691 -0.2313 0
M  V30 37 C 1.2456 -0.2080 0.3302 0
M  V30 38 O -0.0337 -0.5267 -0.0712 0
M  V30 39 C -1.0035 0.3605 0.3712 0
M  V30 40 C -1.6217 1.0557 -0.7897 0
M  V30 41 C -2.6884 2.0406 -0.3893 0
M  V30 42 H 2.7819 -2.1324 -2.0703 0
M  V30 43 H 2.4928 -0.3255 -2.1155 0
M  V30 44 H 1.8659 -2.2936 0.0940 0
M  V30 45 H 1.3970 -0.1457 1.4200 0
M  V30 46 H 1.5519 0.7465 -0.1822 0
M  V30 47 H -0.4614 1.1341 0.9635 0
M  V30 48 H -0.8758 1.5775 -1.4038 0
M  V30 49 H -2.1372 0.3489 -1.4974 0
M  V30 50 H -2.2361 2.7650 0.3341 0
M  V30 51 H -3.0510 2.6448 -1.2361 0
M  V30 52 C 1.2566 0.3530 0.5824 0
M  V30 53 N 0.1015 -0.2145 -0.0384 0
M  V30 54 C -1.1533 0.3423 0.3788 0
M  V30 55 H 1.3082 0.1651 1.6754 0
M  V30 56 H 2.1575 -0.1091 0.1495 0
M  V30 57 H 0.0615 -1.2376 0.1619 0
M  V30 58 H -1.3818 0.0562 1.4244 0
M  V30 59 H -1.9356 -0.1518 -0.2616 0
M  V30 60 C 1.2059 -0.3422 0.0081 0
M  V30 61 N 0.0508 -0.9098 -0.6126 0
M  V30 62 C -1.2040 -0.3529 -0.1954 0
M  V30 63 H 1.2575 -0.5301 1.1011 0
M  V30 64 H 2.1068 -0.8043 -0.4248 0
M  V30 65 H 0.0108 -1.9328 -0.4124 0
M  V30 66 H -1.4326 -0.6390 0.8501 0
M  V30 67 H -1.9864 -0.8470 -0.8359 0
M  V30 68 C 1.5087 1.1609 0.2835 0
M  V30 69 N 0.3535 0.5934 -0.3373 0
M  V30 70 C -0.9013 1.1502 0.0799 0
M  V30 71 H 1.5603 0.9730 1.3764 0
M  V30 72 H 2.4095 0.6988 -0.1494 0
M  V30 73 H 0.3135 -0.4297 -0.1371 0
M  V30 74 H -1.1298 0.8641 1.1255 0
M  V30 75 H -1.6836 0.6561 -0.5606 0
M  V30 76 C -2.6247 -0.4902 0.5306 0
M  V30 77 C -1.9003 -1.6063 1.2257 0
M  V30 78 S -0.2577 -1.1104 1.6846 0
M  V30 79 C 0.8927 -0.8216 0.3633 0
M  V30 80 C 2.2253 -0.4350 1.0166 0
M  V30 81 H -2.7476 0.3930 1.2108 0
M  V30 82 H -3.6644 -0.8363 0.2381 0
M  V30 83 H -2.4854 -1.8194 2.1697 0
M  V30 84 H -1.9440 -2.5588 0.6599 0
M  V30 85 H 0.6218 0.0792 -0.2234 0
M  V30 86 H 1.0399 -1.6667 -0.3342 0
M  V30 87 H 3.0271 -0.2906 0.2954 0
M  V30 88 H 2.5039 -1.2288 1.7469 0
M  V30 89 C -2.1706 0.4390 -0.6344 0
M  V30 90 C -1.4462 -0.6771 0.0606 0
M  V30 91 S 0.1964 -0.1812 0.5195 0
M  V30 92 C 1.3468 0.1076 -0.8018 0
M  V30 93 C 2.6794 0.4942 -0.1484 0
M  V30 94 H -2.2935 1.3222 0.0458 0
M  V30 95 H -3.2103 0.0929 -0.9270 0
M  V30 96 H -2.0313 -0.8903 1.0046 0
M  V30 97 H -1.4899 -1.6296 -0.5051 0
M  V30 98 H 1.0759 1.0084 -1.3885 0
M  V30 99 H 1.4940 -0.7376 -1.4992 0
M  V30 100 H 3.4812 0.6386 -0.8697 0
M  V30 101 H 2.9579 -0.2996 0.5818 0
M  V30 102 C -2.2218 -0.2539 -1.2027 0
M  V30 103 C -1.4974 -1.3700 -0.5076 0
M  V30 104 S 0.1452 -0.8741 -0.0487 0
M  V30 105 C 1.2956 -0.5853 -1.3700 0
M  V30 106 C 2.6282 -0.1987 -0.7167 0
M  V30 107 H -2.3447 0.6293 -0.5224 0
M  V30 108 H -3.2615 -0.6000 -1.4952 0
M  V30 109 H -2.0825 -1.5832 0.4364 0
M  V30 110 H -1.5411 -2.3225 -1.0733 0
M  V30 111 H 1.0247 0.3155 -1.9567 0
M  V30 112 H 1.4428 -1.4305 -2.0674 0
M  V30 113 H 3.4300 -0.0543 -1.4379 0
M  V30 114 H 2.9067 -0.9925 0.0136 0
M  V30 END ATOM
M  V30 BEGIN BOND
M  V30 1 1 1 2
M  V30 2 1 2 3
M  V30 3 1 3 4
M  V30 4 1 4 5
M  V30 5 1 5 6
M  V30 6 1 6 7
M  V30 7 1 1 8
M  V30 8 1 1 9
M  V30 9 1 2 10
M  V30 10 1 3 11
M  V30 11 1 3 12
M  V30 12 1 5 13
M  V30 13 1 6 14
M  V30 14 1 6 15
M  V30 15 1 7 16
M  V30 16 1 7 17
M  V30 17 1 18 19
M  V30 18 1 19 20
M  V30 19 1 20 21
M  V30 20 1 21 22
M  V30 21 1 22 23
M  V30 22 1 23 24
M  V30 23 1 18 25
M  V30 24 1 18 26
M  V30 25 1 19 27
M  V30 26 1 20 28
M  V30 27 1 20 29
M  V30 28 1 22 30
M  V30 29 1 23 31
M  V30 30 1 23 32
M  V30 31 1 24 33
M  V30 32 1 24 34
M  V30 33 1 35 36
M  V30 34 1 36 37
M  V30 35 1 37 38
M  V30 36 1 38 39
M  V30 37 1 39 40
M  V30 38 1 40 41
M  V30 39 1 35 42
M  V30 40 1 35 43
M  V30 41 1 36 44
M  V30 42 1 37 45
M  V30 43 1 37 46
M  V30 44 1 39 47
M  V30 45 1 40 48
M  V30 46 1 40 49
M  V30 47 1 41 50
M  V30 48 1 41 51
M  V30 49 1 52 53
M  V30 50 1 53 54
M  V30 51 1 52 55
M  V30 52 1 52 56
M  V30 53 1 53 57
M  V30 54 1 54 58
M  V30 55 1 54 59
M  V30 56 1 60 61
M  V30 57 1 61 62
M  V30 58 1 60 63
M  V30 59 1 60 64
M  V30 60 1 61 65
M  V30 61 1 62 66
M  V30 62 1 62 67
M  V30 63 1 68 69
M  V30 64 1 69 70
M  V30 65 1 68 71
M  V30 66 1 68 72
M  V30 67 1 69 73
M  V30 68 1 70 74
M  V30 69 1 70 75
M  V30 70 1 76 77
M  V30 71 1 77 78
M  V30 72 1 78 79
M  V30 73 1 79 80
M  V30 74 1 76 81
M  V30 75 1 76 82
M  V30 76 1 77 83
M  V30 77 1 77 84
M  V30 78 1 79 85
M  V30 79 1 79 86
M  V30 80 1 80 87
M  V30 81 1 80 88
M  V30 82 1 89 90
M  V30 83 1 90 91
M  V30 84 1 91 92
M  V30 85 1 92 93
M  V30 86 1 89 94
M  V30 87 1 89 95
M  V30 88 1 90 96
M  V30 89 1 90 97
M  V30 90 1 92 98
M  V30 91 1 92 99
M  V30 92 1 93 100
M  V30 93 1 93 101
M  V30 94 1 102 103
M  V30 95 1 103 104
M  V30 96 1 104 105
M  V30 97 1 105 106
M  V30 98 1 102 107
M  V30 99 1 102 108
M  V30 100 1 103 109
M  V30 101 1 103 110
M  V30 102 1 105 111
M  V30 103 1 105 112
M  V30 104 1 106 113
M  V30 105 1 106 114
M  V30 106 1 1 52
M  V30 107 1 2 89
M  V30 108 1 5 68
M  V30 109 1 7 70
M  V30 110 1 18 54
M  V30 111 1 19 60
M  V30 112 1 22 76
M  V30 113 1 24 80
M  V30 114 1 35 102
M  V30 115 1 36 62
M  V30 116 1 39 93
M  V30 117 1 41 106
M  V30 END BOND
M  V30 END CTAB
M  END

$$$$
