
     RDKit          3D

  0  0  0  0  0  0  0  0  0  0999 V3000
M  V30 BEGIN CTAB
M  V30 COUNTS 114 117 0 0 0
M  V30 BEGIN ATOM
M  V30 1 C 2.5985 -2.9607 0.0060 0
M  V30 2 C 2.6643 -2.9276 1.5193 0
M  V30 3 C 1.7218 -1.8665 2.0808 0
M  V30 4 O 0.4426 -2.1852 1.6794 0
M  V30 5 C -0.5272 -1.2980 2.1218 0
M  V30 6 C -1.1455 -0.6028 0.9610 0
M  V30 7 C -2.2122 0.3821 1.3613 0
M  V30 8 H 3.2582 -3.7909 -0.3197 0
M  V30 9 H 2.9691 -1.9840 -0.3649 0
M  V30 10 H 2.3422 -3.9522 1.8446 0
M  V30 11 H 1.8732 -1.8042 3.1707 0
M  V30 12 H 2.0281 -0.9121 1.5685 0
M  V30 13 H 0.0149 -0.5244 2.7141 0
M  V30 14 H -0.3996 -0.0811 0.3468 0
M  V30 15 H -1.6610 -1.3096 0.2533 0
M  V30 16 H -1.7599 1.1065 2.0848 0
M  V30 17 H -2.5747 0.9863 0.5145 0
M  V30 18 C 3.4984 1.6626 -1.3796 0
M  V30 19 C 3.5642 1.6957 0.1337 0
M  V30 20 C 2.6216 2.7568 0.6953 0
M  V30 21 O 1.3424 2.4380 0.2938 0
M  V30 22 C 0.3726 3.3253 0.7362 0
M  V30 23 C -0.2457 4.0204 -0.4246 0
M  V30 24 C -1.3123 5.0054 -0.0243 0
M  V30 25 H 4.1580 0.8323 -1.7053 0
M  V30 26 H 3.8689 2.6393 -1.7505 0
M  V30 27 H 3.2420 0.6711 0.4591 0
M  V30 28 H 2.7731 2.8191 1.7851 0
M  V30 29 H 2.9279 3.7112 0.1829 0
M  V30 30 H 0.9147 4.0989 1.3286 0
M  V30 31 H 0.5003 4.5422 -1.0387 0
M  V30 32 H -0.7612 3.3136 -1.1323 0
M  V30 33 H -0.8601 5.7298 0.6992 0
M  V30 34 H -1.6749 5.6095 -0.8710 0
M  V30 35 C 0.3747 -2.0210 -2.2620 0
M  V30 36 C 0.4405 -1.9879 -0.7487 0
M  V30 37 C -0.5020 -0.9268 -0.1871 0
M  V30 38 O -1.7812 -1.2455 -0.5886 0
M  V30 39 C -2.7511 -0.3583 -0.1462 0
M  V30 40 C -3.3693 0.3369 -1.3070 0
M  V30 41 C -4.4360 1.3218 -0.9067 0
M  V30 42 H 1.0344 -2.8512 -2.5877 0
M  V30 43 H 0.7453 -1.0443 -2.6329 0
M  V30 44 H 0.1184 -3.0124 -0.4233 0
M  V30 45 H -0.3506 -0.8645 0.9027 0
M  V30 46 H -0.1957 0.0277 -0.6995 0
M  V30 47 H -2.2089 0.4153 0.4462 0
M  V30 48 H -2.6234 0.8587 -1.9211 0
M  V30 49 H -3.8848 -0.3699 -2.0147 0
M  V30 50 H -3.9837 2.0462 -0.1832 0
M  V30 51 H -4.7986 1.9260 -1.7535 0
M  V30 52 C 3.8514 5.2313 -0.1712 0
M  V30 53 N 2.6963 4.6638 -0.7920 0
M  V30 54 C 1.4415 5.2206 -0.3748 0
M  V30 55 H 3.9030 5.0434 0.9218 0
M  V30 56 H 4.7523 4.7692 -0.6041 0
M  V30 57 H 2.6563 3.6407 -0.5917 0
M  V30 58 H 1.2129 4.9346 0.6708 0
M  V30 59 H 0.6592 4.7265 -1.0152 0
M  V30 60 C 3.3811 0.6928 1.5297 0
M  V30 61 N 2.2260 0.1253 0.9090 0
M  V30 62 C 0.9711 0.6821 1.3262 0
M  V30 63 H 3.4327 0.5049 2.6227 0
M  V30 64 H 4.2819 0.2307 1.0968 0
M  V30 65 H 2.1859 -0.8978 1.1092 0
M  V30 66 H 0.7426 0.3960 2.3717 0
M  V30 67 H 0.1888 0.1880 0.6857 0
M  V30 68 C -0.1884 -3.1094 0.3339 0
M  V30 69 N -1.3435 -3.6769 -0.2868 0
M  V30 70 C -2.5984 -3.1201 0.1304 0
M  V30 71 H -0.1368 -3.2973 1.4269 0
M  V30 72 H 0.7124 -3.5715 -0.0990 0
M  V30 73 H -1.3836 -4.7000 -0.0866 0
M  V30 74 H -2.8269 -3.4061 1.1759 0
M  V30 75 H -3.3807 -3.6142 -0.5101 0
M  V30 76 C -1.7156 -2.3431 -1.7415 0
M  V30 77 C -0.9912 -3.4592 -1.0465 0
M  V30 78 S 0.6514 -2.9634 -0.5875 0
M  V30 79 C 1.8018 -2.6745 -1.9088 0
M  V30 80 C 3.1344 -2.2880 -1.2555 0
M  V30 81 H -1.8384 -1.4599 -1.0613 0
M  V30 82 H -2.7553 -2.6892 -2.0340 0
M  V30 83 H -1.5763 -3.6724 -0.1024 0
M  V30 84 H -1.0348 -4.4118 -1.6122 0
M  V30 85 H 1.5309 -1.7738 -2.4956 0
M  V30 86 H 1.9490 -3.5197 -2.6063 0
M  V30 87 H 3.9363 -2.1435 -1.9768 0
M  V30 88 H 3.4130 -3.0818 -0.5253 0
M  V30 89 C -4.4171 -0.8364 1.5318 0
M  V30 90 C -3.6927 -1.9524 2.2268 0
M  V30 91 S -2.0501 -1.4566 2.6857 0
M  V30 92 C -0.8997 -1.1678 1.3645 0
M  V30 93 C 0.4329 -0.7812 2.0178 0
M  V30 94 H -4.5399 0.0469 2.2120 0
M  V30 95 H -5.4568 -1.1825 1.2392 0
M  V30 96 H -4.2778 -2.1656 3.1709 0
M  V30 97 H -3.7363 -2.9050 1.6611 0
M  V30 98 H -1.1706 -0.2670 0.7777 0
M  V30 99 H -0.7525 -2.0129 0.6670 0
M  V30 100 H 1.2348 -0.6367 1.2965 0
M  V30 101 H 0.7115 -1.5750 2.7480 0
M  V30 102 C -3.1174 1.8721 -1.7406 0
M  V30 103 C -2.3930 0.7560 -1.0455 0
M  V30 104 S -0.7505 1.2519 -0.5866 0
M  V30 105 C 0.3999 1.5407 -1.9079 0
M  V30 106 C 1.7326 1.9273 -1.2546 0
M  V30 107 H -3.2403 2.7553 -1.0603 0
M  V30 108 H -4.1572 1.5260 -2.0331 0
M  V30 109 H -2.9782 0.5429 -0.1015 0
M  V30 110 H -2.4367 -0.1965 -1.6113 0
M  V30 111 H 0.1291 2.4415 -2.4946 0
M  V30 112 H 0.5472 0.6956 -2.6053 0
M  V30 113 H 2.5344 2.0717 -1.9758 0
M  V30 114 H 2.0111 1.1335 -0.5243 0
M  V30 END ATOM
M  V30 BEGIN BOND
M  V30 1 1 1 2
M  V30 2 1 2 3
M  V30 3 1 3 4
M  V30 4 1 4 5
M  V30 5 1 5 6
M  V30 6 1 6 7
M  V30 7 1 1 8
M  V30 8 1 1 9
M  V30 9 1 2 10
M  V30 10 1 3 11
M  V30 11 1 3 12
M  V30 12 1 5 13
M  V30 13 1 6 14
M  V30 14 1 6 15
M  V30 15 1 7 16
M  V30 16 1 7 17
M  V30 17 1 18 19
M  V30 18 1 19 20
M  V30 19 1 20 21
M  V30 20 1 21 22
M  V30 21 1 22 23
M  V30 22 1 23 24
M  V30 23 1 18 25
M  V30 24 1 18 26
M  V30 25 1 19 27
M  V30 26 1 20 28
M  V30 27 1 20 29
M  V30 28 1 22 30
M  V30 29 1 23 31
M  V30 30 1 23 32
M  V30 31 1 24 33
M  V30 32 1 24 34
M  V30 33 1 35 36
M  V30 34 1 36 37
M  V30 35 1 37 38
M  V30 36 1 38 39
M  V30 37 1 39 40
M  V30 38 1 40 41
M  V30 39 1 35 42
M  V30 40 1 35 43
M  V30 41 1 36 44
M  V30 42 1 37 45
M  V30 43 1 37 46
M  V30 44 1 39 47
M  V30 45 1 40 48
M  V30 46 1 40 49
M  V30 47 1 41 50
M  V30 48 1 41 51
M  V30 49 1 52 53
M  V30 50 1 53 54
M  V30 51 1 52 55
M  V30 52 1 52 56
M  V30 53 1 53 57
M  V30 54 1 54 58
M  V30 55 1 54 59
M  V30 56 1 60 61
M  V30 57 1 61 62
M  V30 58 1 60 63
M  V30 59 1 60 64
M  V30 60 1 61 65
M  V30 61 1 62 66
M  V30 62 1 62 67
M  V30 63 1 68 69
M  V30 64 1 69 70
M  V30 65 1 68 71
M  V30 66 1 68 72
M  V30 67 1 69 73
M  V30 68 1 70 74
M  V30 69 1 70 75
M  V30 70 1 76 77
M  V30 71 1 77 78
M  V30 72 1 78 79
M  V30 73 1 79 80
M  V30 74 1 76 81
M  V30 75 1 76 82
M  V30 76 1 77 83
M  V30 77 1 77 84
M  V30 78 1 79 85
M  V30 79 1 79 86
M  V30 80 1 80 87
M  V30 81 1 80 88
M  V30 82 1 89 90
M  V30 83 1 90 91
M  V30 84 1 91 92
M  V30 85 1 92 93
M  V30 86 1 89 94
M  V30 87 1 89 95
M  V30 88 1 90 96
M  V30 89 1 90 97
M  V30 90 1 92 98
M  V30 91 1 92 99
M  V30 92 1 93 100
M  V30 93 1 93 101
M  V30 94 1 102 103
M  V30 95 1 103 104
M  V30 96 1 104 105
M  V30 97 1 105 106
M  V30 98 1 102 107
M  V30 99 1 102 108
M  V30 100 1 103 109
M  V30 101 1 103 110
M  V30 102 1 105 111
M  V30 103 1 105 112
M  V30 104 1 106 113
M  V30 105 1 106 114
M  V30 106 1 1 60
M  V30 107 1 2 68
M  V30 108 1 5 89
M  V30 109 1 7 76
M  V30 110 1 18 62
M  V30 111 1 19 102
M  V30 112 1 22 52
M  V30 113 1 24 54
M  V30 114 1 35 80
M  V30 115 1 36 106
M  V30 116 1 39 70
M  V30 117 1 41 93
M  V30 END BOND
M  V30 END CTAB
M  END

$$$$
