
     RDKit          3D

  0  0  0  0  0  0  0  0  0  0999 V3000
M  V30 BEGIN CTAB
M  V30 COUNTS 114 117 0 0 0
M  V30 BEGIN ATOM
M  V30 1 C 1.5545 1.2997 -0.6593 0
M  V30 2 C 1.6203 1.3328 0.8540 0
M  V30 3 C 0.6778 2.3939 1.4155 0
M  V30 4 O -0.6014 2.0751 1.0141 0
M  V30 5 C -1.5712 2.9624 1.4565 0
M  V30 6 C -2.1895 3.6575 0.2956 0
M  V30 7 C -3.2561 4.6425 0.6960 0
M  V30 8 H 2.2142 0.4694 -0.9850 0
M  V30 9 H 1.9251 2.2764 -1.0302 0
M  V30 10 H 1.2982 0.3082 1.1793 0
M  V30 11 H 0.8293 2.4562 2.5053 0
M  V30 12 H 0.9841 3.3483 0.9031 0
M  V30 13 H -1.0291 3.7360 2.0488 0
M  V30 14 H -1.4436 4.1793 -0.3185 0
M  V30 15 H -2.7050 2.9507 -0.4121 0
M  V30 16 H -2.8039 5.3669 1.4194 0
M  V30 17 H -3.6187 5.2466 -0.1508 0
M  V30 18 C 3.6795 -4.1264 0.6874 0
M  V30 19 C 3.7453 -4.0933 2.2007 0
M  V30 20 C 2.8028 -3.0322 2.7623 0
M  V30 21 O 1.5236 -3.3509 2.3608 0
M  V30 22 C 0.5537 -2.4637 2.8032 0
M  V30 23 C -0.0645 -1.7685 1.6424 0
M  V30 24 C -1.1312 -0.7836 2.0427 0
M  V30 25 H 4.3392 -4.9566 0.3617 0
M  V30 26 H 4.0501 -3.1497 0.3165 0
M  V30 27 H 3.4232 -5.1179 2.5261 0
M  V30 28 H 2.9542 -2.9699 3.8521 0
M  V30 29 H 3.1091 -2.0778 2.2499 0
M  V30 30 H 1.0959 -1.6901 3.3956 0
M  V30 31 H 0.6814 -1.2468 1.0283 0
M  V30 32 H -0.5800 -2.4753 0.9347 0
M  V30 33 H -0.6789 -0.0592 2.7662 0
M  V30 34 H -1.4938 -0.1794 1.1960 0
M  V30 35 C 0.8115 -1.2468 -3.7003 0
M  V30 36 C 0.8773 -1.2137 -2.1870 0
M  V30 37 C -0.0652 -0.1526 -1.6254 0
M  V30 38 O -1.3444 -0.4714 -2.0269 0
M  V30 39 C -2.3143 0.4158 -1.5845 0
M  V30 40 C -2.9325 1.1110 -2.7453 0
M  V30 41 C -3.9992 2.0959 -2.3450 0
M  V30 42 H 1.4712 -2.0771 -4.0260 0
M  V30 43 H 1.1821 -0.2701 -4.0712 0
M  V30 44 H 0.5552 -2.2383 -1.8616 0
M  V30 45 H 0.0862 -0.0903 -0.5356 0
M  V30 46 H 0.2411 0.8018 -2.1378 0
M  V30 47 H -1.7721 1.1895 -0.9921 0
M  V30 48 H -2.1866 1.6328 -3.3594 0
M  V30 49 H -3.4480 0.4042 -3.4530 0
M  V30 50 H -3.5469 2.8203 -1.6215 0
M  V30 51 H -4.3618 2.7001 -3.1917 0
M  V30 52 C -2.1847 0.9626 0.0801 0
M  V30 53 N -3.3398 0.3951 -0.5407 0
M  V30 54 C -4.5946 0.9519 -0.1235 0
M  V30 55 H -2.1331 0.7747 1.1730 0
M  V30 56 H -1.2839 0.5005 -0.3529 0
M  V30 57 H -3.3799 -0.6280 -0.3405 0
M  V30 58 H -4.8232 0.6659 0.9220 0
M  V30 59 H -5.3770 0.4578 -0.7640 0
M  V30 60 C 1.4591 -2.8752 -1.0505 0
M  V30 61 N 0.3040 -3.4427 -1.6713 0
M  V30 62 C -0.9508 -2.8859 -1.2541 0
M  V30 63 H 1.5107 -3.0631 0.0424 0
M  V30 64 H 2.3600 -3.3373 -1.4834 0
M  V30 65 H 0.2640 -4.4658 -1.4711 0
M  V30 66 H -1.1794 -3.1720 -0.2085 0
M  V30 67 H -1.7332 -3.3800 -1.8946 0
M  V30 68 C 4.2998 -5.1656 3.6264 0
M  V30 69 N 3.1447 -5.7332 3.0056 0
M  V30 70 C 1.8898 -5.1763 3.4228 0
M  V30 71 H 4.3514 -5.3536 4.7193 0
M  V30 72 H 5.2006 -5.6277 3.1934 0
M  V30 73 H 3.1046 -6.7562 3.2058 0
M  V30 74 H 1.6613 -5.4624 4.4683 0
M  V30 75 H 1.1075 -5.6705 2.7823 0
M  V30 76 C -1.2124 0.3764 2.5272 0
M  V30 77 C -0.4880 -0.7396 3.2223 0
M  V30 78 S 1.1545 -0.2438 3.6812 0
M  V30 79 C 2.3049 0.0450 2.3599 0
M  V30 80 C 3.6376 0.4316 3.0133 0
M  V30 81 H -1.3353 1.2596 3.2075 0
M  V30 82 H -2.2522 0.0303 2.2347 0
M  V30 83 H -1.0732 -0.9528 4.1663 0
M  V30 84 H -0.5317 -1.6922 2.6566 0
M  V30 85 H 2.0341 0.9458 1.7732 0
M  V30 86 H 2.4522 -0.8001 1.6625 0
M  V30 87 H 4.4394 0.5760 2.2920 0
M  V30 88 H 3.9161 -0.3622 3.7435 0
M  V30 89 C -1.0027 2.2493 -2.5456 0
M  V30 90 C -0.2783 1.1333 -1.8505 0
M  V30 91 S 1.3643 1.6291 -1.3916 0
M  V30 92 C 2.5147 1.9179 -2.7129 0
M  V30 93 C 3.8473 2.3045 -2.0596 0
M  V30 94 H -1.1256 3.1325 -1.8653 0
M  V30 95 H -2.0424 1.9032 -2.8381 0
M  V30 96 H -0.8634 0.9201 -0.9065 0
M  V30 97 H -0.3220 0.1807 -2.4162 0
M  V30 98 H 2.2438 2.8187 -3.2996 0
M  V30 99 H 2.6619 1.0728 -3.4103 0
M  V30 100 H 4.6491 2.4490 -2.7808 0
M  V30 101 H 4.1259 1.5107 -1.3293 0
M  V30 102 C -4.3425 3.1414 -2.4770 0
M  V30 103 C -3.6181 2.0254 -1.7819 0
M  V30 104 S -1.9755 2.5212 -1.3230 0
M  V30 105 C -0.8251 2.8100 -2.6443 0
M  V30 106 C 0.5075 3.1966 -1.9910 0
M  V30 107 H -4.4654 4.0247 -1.7967 0
M  V30 108 H -5.3822 2.7953 -2.7695 0
M  V30 109 H -4.2032 1.8122 -0.8379 0
M  V30 110 H -3.6618 1.0728 -2.3477 0
M  V30 111 H -1.0960 3.7108 -3.2310 0
M  V30 112 H -0.6779 1.9649 -3.3417 0
M  V30 113 H 1.3093 3.3411 -2.7122 0
M  V30 114 H 0.7860 2.4028 -1.2607 0
M  V30 END ATOM
M  V30 BEGIN BOND
M  V30 1 1 1 2
M  V30 2 1 2 3
M  V30 3 1 3 4
M  V30 4 1 4 5
M  V30 5 1 5 6
M  V30 6 1 6 7
M  V30 7 1 1 8
M  V30 8 1 1 9
M  V30 9 1 2 10
M  V30 10 1 3 11
M  V30 11 1 3 12
M  V30 12 1 5 13
M  V30 13 1 6 14
M  V30 14 1 6 15
M  V30 15 1 7 16
M  V30 16 1 7 17
M  V30 17 1 18 19
M  V30 18 1 19 20
M  V30 19 1 20 21
M  V30 20 1 21 22
M  V30 21 1 22 23
M  V30 22 1 23 24
M  V30 23 1 18 25
M  V30 24 1 18 26
M  V30 25 1 19 27
M  V30 26 1 20 28
M  V30 27 1 20 29
M  V30 28 1 22 30
M  V30 29 1 23 31
M  V30 30 1 23 32
M  V30 31 1 24 33
M  V30 32 1 24 34
M  V30 33 1 35 36
M  V30 34 1 36 37
M  V30 35 1 37 38
M  V30 36 1 38 39
M  V30 37 1 39 40
M  V30 38 1 40 41
M  V30 39 1 35 42
M  V30 40 1 35 43
M  V30 41 1 36 44
M  V30 42 1 37 45
M  V30 43 1 37 46
M  V30 44 1 39 47
M  V30 45 1 40 48
M  V30 46 1 40 49
M  V30 47 1 41 50
M  V30 48 1 41 51
M  V30 49 1 52 53
M  V30 50 1 53 54
M  V30 51 1 52 55
M  V30 52 1 52 56
M  V30 53 1 53 57
M  V30 54 1 54 58
M  V30 55 1 54 59
M  V30 56 1 60 61
M  V30 57 1 61 62
M  V30 58 1 60 63
M  V30 59 1 60 64
M  V30 60 1 61 65
M  V30 61 1 62 66
M  V30 62 1 62 67
M  V30 63 1 68 69
M  V30 64 1 69 70
M  V30 65 1 68 71
M  V30 66 1 68 72
M  V30 67 1 69 73
M  V30 68 1 70 74
M  V30 69 1 70 75
M  V30 70 1 76 77
M  V30 71 1 77 78
M  V30 72 1 78 79
M  V30 73 1 79 80
M  V30 74 1 76 81
M  V30 75 1 76 82
M  V30 76 1 77 83
M  V30 77 1 77 84
M  V30 78 1 79 85
M  V30 79 1 79 86
M  V30 80 1 80 87
M  V30 81 1 80 88
M  V30 82 1 89 90
M  V30 83 1 90 91
M  V30 84 1 91 92
M  V30 85 1 92 93
M  V30 86 1 89 94
M  V30 87 1 89 95
M  V30 88 1 90 96
M  V30 89 1 90 97
M  V30 90 1 92 98
M  V30 91 1 92 99
M  V30 92 1 93 100
M  V30 93 1 93 101
M  V30 94 1 102 103
M  V30 95 1 103 104
M  V30 96 1 104 105
M  V30 97 1 105 106
M  V30 98 1 102 107
M  V30 99 1 102 108
M  V30 100 1 103 109
M  V30 101 1 103 110
M  V30 102 1 105 111
M  V30 103 1 105 112
M  V30 104 1 106 113
M  V30 105 1 106 114
M  V30 106 1 1 89
M  V30 107 1 2 102
M  V30 108 1 5 76
M  V30 109 1 7 52
M  V30 110 1 18 60
M  V30 111 1 19 68
M  V30 112 1 22 70
M  V30 113 1 24 80
M  V30 114 1 35 93
M  V30 115 1 36 54
M  V30 116 1 39 62
M  V30 117 1 41 106
M  V30 END BOND
M  V30 END CTAB
M  END

$$$$
