
     RDKit          3D

  0  0  0  0  0  0  0  0  0  0999 V3000
M  V30 BEGIN CTAB
M  V30 COUNTS 76 78 0 0 0
M  V30 BEGIN ATOM
M  V30 1 C 0.7717 -5.1419 1.0466 0
M  V30 2 B -0.8223 -5.1706 1.0190 0
M  V30 3 C -1.6244 -4.6873 -0.2816 0
M  V30 4 H 1.1127 -4.9821 -0.0035 0
M  V30 5 H -1.4584 -5.1478 2.0266 0
M  V30 6 H -2.5007 -5.3244 -0.4667 0
M  V30 7 H -1.8865 -3.6087 -0.1945 0
M  V30 8 C -0.7662 5.3125 -1.1276 0
M  V30 9 B 0.0960 5.3208 0.2136 0
M  V30 10 C 1.6304 4.8582 0.1998 0
M  V30 11 H -0.0508 5.1823 -1.9737 0
M  V30 12 H -0.4254 5.2655 1.2839 0
M  V30 13 H 2.2405 5.4878 0.8625 0
M  V30 14 H 1.7087 3.7744 0.4428 0
M  V30 15 C 1.4571 0.5852 4.6899 0
M  V30 16 B 2.0471 -0.8747 4.4392 0
M  V30 17 C 1.1803 -2.1762 4.7901 0
M  V30 18 H 0.3647 0.4661 4.8828 0
M  V30 19 H 3.2224 -1.0655 4.3857 0
M  V30 20 H 1.3215 -2.9623 4.0350 0
M  V30 21 H 1.4084 -2.5247 5.8227 0
M  V30 22 C -2.1496 2.0486 -4.5800 0
M  V30 23 B -1.8862 0.4761 -4.5776 0
M  V30 24 C -0.4778 -0.1159 -5.0618 0
M  V30 25 H -1.1605 2.5441 -4.7241 0
M  V30 26 H -2.7883 -0.3017 -4.6205 0
M  V30 27 H -0.1693 -0.9664 -4.4378 0
M  V30 28 H -0.5178 -0.3687 -6.1455 0
M  V30 29 C -2.4990 5.1055 -2.0505 0
M  V30 30 N -3.5156 4.2280 -2.5387 0
M  V30 31 C -3.1772 3.5017 -3.7290 0
M  V30 32 H -2.2723 5.9459 -2.7396 0
M  V30 33 H -2.8451 5.5646 -1.1114 0
M  V30 34 H -4.3791 4.7737 -2.7509 0
M  V30 35 H -3.1252 4.1812 -4.6024 0
M  V30 36 H -4.0420 2.8076 -3.9204 0
M  V30 37 C 1.9837 4.6060 -3.3745 0
M  V30 38 N 1.7273 4.3458 -4.7559 0
M  V30 39 C 1.3071 3.0078 -5.0588 0
M  V30 40 H 2.8417 4.0304 -2.9682 0
M  V30 41 H 2.2440 5.6692 -3.2542 0
M  V30 42 H 2.5899 4.5270 -5.3140 0
M  V30 43 H 2.1412 2.2925 -4.9177 0
M  V30 44 H 1.0700 3.0029 -6.1589 0
M  V30 45 C 1.1704 4.0656 2.4220 0
M  V30 46 N 1.9848 3.4568 3.4259 0
M  V30 47 C 1.4448 2.2634 4.0113 0
M  V30 48 H 0.2053 4.4529 2.8108 0
M  V30 49 H 1.7047 4.9350 2.0082 0
M  V30 50 H 2.1457 4.1315 4.2052 0
M  V30 51 H 0.5668 2.4989 4.6446 0
M  V30 52 H 2.2405 1.8762 4.7066 0
M  V30 53 C -1.9798 -4.4336 3.2918 0
M  V30 54 N -2.3680 -3.4023 4.2015 0
M  V30 55 C -1.3015 -2.8376 4.9777 0
M  V30 56 H -1.5949 -5.3451 3.7954 0
M  V30 57 H -2.8625 -4.7518 2.7157 0
M  V30 58 H -3.0707 -3.7749 4.8765 0
M  V30 59 H -0.9271 -3.5686 5.7213 0
M  V30 60 H -1.7631 -1.9970 5.5664 0
M  V30 61 C 2.5071 -4.9303 1.9646 0
M  V30 62 N 3.0907 -4.7099 3.2502 0
M  V30 63 C 3.1785 -3.3362 3.6550 0
M  V30 64 H 3.1082 -4.5140 1.1292 0
M  V30 65 H 2.4416 -6.0146 1.7839 0
M  V30 66 H 4.0605 -5.0942 3.2668 0
M  V30 67 H 3.9305 -2.7950 3.0476 0
M  V30 68 H 3.5756 -3.3520 4.7079 0
M  V30 69 C -1.1659 -3.8949 -2.5029 0
M  V30 70 N -0.9188 -3.4029 -3.8215 0
M  V30 71 C -1.4375 -2.0929 -4.0931 0
M  V30 72 H -2.2426 -4.0575 -2.2865 0
M  V30 73 H -0.6796 -4.8765 -2.3916 0
M  V30 74 H -1.3422 -4.0487 -4.5230 0
M  V30 75 H -2.5443 -2.1102 -4.1380 0
M  V30 76 H -1.0838 -1.8323 -5.1291 0
M  V30 END ATOM
M  V30 BEGIN BOND
M  V30 1 1 1 2
M  V30 2 1 2 3
M  V30 3 1 1 4
M  V30 4 1 2 5
M  V30 5 1 3 6
M  V30 6 1 3 7
M  V30 7 1 8 9
M  V30 8 1 9 10
M  V30 9 1 8 11
M  V30 10 1 9 12
M  V30 11 1 10 13
M  V30 12 1 10 14
M  V30 13 1 15 16
M  V30 14 1 16 17
M  V30 15 1 15 18
M  V30 16 1 16 19
M  V30 17 1 17 20
M  V30 18 1 17 21
M  V30 19 1 22 23
M  V30 20 1 23 24
M  V30 21 1 22 25
M  V30 22 1 23 26
M  V30 23 1 24 27
M  V30 24 1 24 28
M  V30 25 1 29 30
M  V30 26 1 30 31
M  V30 27 1 29 32
M  V30 28 1 29 33
M  V30 29 1 30 34
M  V30 30 1 31 35
M  V30 31 1 31 36
M  V30 32 1 37 38
M  V30 33 1 38 39
M  V30 34 1 37 40
M  V30 35 1 37 41
M  V30 36 1 38 42
M  V30 37 1 39 43
M  V30 38 1 39 44
M  V30 39 1 45 46
M  V30 40 1 46 47
M  V30 41 1 45 48
M  V30 42 1 45 49
M  V30 43 1 46 50
M  V30 44 1 47 51
M  V30 45 1 47 52
M  V30 46 1 53 54
M  V30 47 1 54 55
M  V30 48 1 53 56
M  V30 49 1 53 57
M  V30 50 1 54 58
M  V30 51 1 55 59
M  V30 52 1 55 60
M  V30 53 1 61 62
M  V30 54 1 62 63
M  V30 55 1 61 64
M  V30 56 1 61 65
M  V30 57 1 62 66
M  V30 58 1 63 67
M  V30 59 1 63 68
M  V30 60 1 69 70
M  V30 61 1 70 71
M  V30 62 1 69 72
M  V30 63 1 69 73
M  V30 64 1 70 74
M  V30 65 1 71 75
M  V30 66 1 71 76
M  V30 67 1 1 61
M  V30 68 1 1 69
M  V30 69 1 3 53
M  V30 70 1 8 29
M  V30 71 1 8 37
M  V30 72 1 10 45
M  V30 73 1 15 47
M  V30 74 1 15 55
M  V30 75 1 17 63
M  V30 76 1 22 31
M  V30 77 1 22 39
M  V30 78 1 24 71
M  V30 END BOND
M  V30 END CTAB
M  END

$$$$
