
     RDKit          3D

  0  0  0  0  0  0  0  0  0  0999 V3000
M  V30 BEGIN CTAB
M  V30 COUNTS 76 78 0 0 0
M  V30 BEGIN ATOM
M  V30 1 C -5.0131 -0.4397 -0.5910 0
M  V30 2 B -4.8621 -2.0141 -0.3896 0
M  V30 3 C -4.2075 -2.6063 0.9481 0
M  V30 4 H -4.8233 0.0350 0.4006 0
M  V30 5 H -4.8351 -2.7567 -1.3215 0
M  V30 6 H -4.7293 -3.5164 1.2758 0
M  V30 7 H -3.1146 -2.7639 0.8057 0
M  V30 8 C 1.1199 3.6499 -3.5067 0
M  V30 9 B -0.2445 4.4207 -3.2123 0
M  V30 10 C -0.6255 4.8635 -1.7199 0
M  V30 11 H 1.7476 3.7369 -2.5886 0
M  V30 12 H -1.1739 4.3371 -3.9536 0
M  V30 13 H -1.1058 5.8520 -1.7098 0
M  V30 14 H -1.2453 4.0783 -1.2309 0
M  V30 15 C 3.6588 -3.4072 -0.9390 0
M  V30 16 B 2.7559 -4.1048 -2.0528 0
M  V30 17 C 2.1357 -3.2462 -3.2555 0
M  V30 18 H 3.9177 -2.3909 -1.3194 0
M  V30 19 H 2.1876 -5.1295 -1.8350 0
M  V30 20 H 2.1617 -3.8089 -4.1992 0
M  V30 21 H 1.1127 -2.8951 -2.9913 0
M  V30 22 C 1.8617 2.2933 4.2682 0
M  V30 23 B 2.3507 0.7760 4.2976 0
M  V30 24 C 1.4219 -0.3683 4.9271 0
M  V30 25 H 0.7732 2.2893 4.5129 0
M  V30 26 H 3.5089 0.4989 4.2489 0
M  V30 27 H 1.4830 -1.2960 4.3408 0
M  V30 28 H 1.6718 -0.5204 6.0014 0
M  V30 29 C -5.1076 1.7564 -2.0153 0
M  V30 30 N -4.7047 2.5621 -3.1245 0
M  V30 31 C -3.6456 3.4913 -2.8532 0
M  V30 32 H -5.5612 2.3400 -1.1869 0
M  V30 33 H -5.8817 1.0489 -2.3510 0
M  V30 34 H -5.5171 3.1192 -3.4680 0
M  V30 35 H -3.9975 4.3052 -2.1891 0
M  V30 36 H -3.4007 3.9732 -3.8403 0
M  V30 37 C -3.9318 -1.0210 4.0648 0
M  V30 38 N -3.4603 -0.1941 5.1305 0
M  V30 39 C -2.0514 -0.2745 5.3900 0
M  V30 40 H -3.8280 -2.1073 4.2693 0
M  V30 41 H -5.0081 -0.8381 3.9209 0
M  V30 42 H -3.9476 -0.4504 6.0166 0
M  V30 43 H -1.7880 -1.2577 5.8274 0
M  V30 44 H -1.8428 0.4916 6.1875 0
M  V30 45 C 1.6207 5.5893 0.8728 0
M  V30 46 N 2.5176 5.4367 1.9746 0
M  V30 47 C 2.0449 4.5954 3.0364 0
M  V30 48 H 0.6789 6.1136 1.1389 0
M  V30 49 H 2.1064 6.2057 0.1003 0
M  V30 50 H 2.7213 6.3699 2.3942 0
M  V30 51 H 1.2107 5.0806 3.5805 0
M  V30 52 H 2.8964 4.5183 3.7682 0
M  V30 53 C -2.8734 -4.6374 -1.5816 0
M  V30 54 N -1.8189 -5.6015 -1.6039 0
M  V30 55 C -0.6163 -5.1778 -2.2619 0
M  V30 56 H -3.2717 -4.3949 -2.5891 0
M  V30 57 H -3.7195 -5.0476 -1.0085 0
M  V30 58 H -2.1428 -6.4659 -2.0900 0
M  V30 59 H -0.7748 -5.0950 -3.3552 0
M  V30 60 H 0.1244 -6.0119 -2.1128 0
M  V30 61 C 4.6552 -3.0832 1.4616 0
M  V30 62 N 4.5427 -3.0766 2.8860 0
M  V30 63 C 4.2740 -1.7951 3.4727 0
M  V30 64 H 5.5243 -2.5045 1.0843 0
M  V30 65 H 4.8060 -4.1193 1.1206 0
M  V30 66 H 5.4297 -3.4251 3.3105 0
M  V30 67 H 5.1548 -1.1293 3.3829 0
M  V30 68 H 4.1333 -1.9854 4.5729 0
M  V30 69 C 2.6815 1.9716 -4.7739 0
M  V30 70 N 2.9306 0.7323 -5.4400 0
M  V30 71 C 3.4775 -0.3066 -4.6153 0
M  V30 72 H 3.6039 2.4706 -4.4095 0
M  V30 73 H 2.2155 2.6714 -5.4850 0
M  V30 74 H 3.6022 0.8831 -6.2239 0
M  V30 75 H 4.5213 -0.0717 -4.3279 0
M  V30 76 H 3.5285 -1.2214 -5.2687 0
M  V30 END ATOM
M  V30 BEGIN BOND
M  V30 1 1 1 2
M  V30 2 1 2 3
M  V30 3 1 1 4
M  V30 4 1 2 5
M  V30 5 1 3 6
M  V30 6 1 3 7
M  V30 7 1 8 9
M  V30 8 1 9 10
M  V30 9 1 8 11
M  V30 10 1 9 12
M  V30 11 1 10 13
M  V30 12 1 10 14
M  V30 13 1 15 16
M  V30 14 1 16 17
M  V30 15 1 15 18
M  V30 16 1 16 19
M  V30 17 1 17 20
M  V30 18 1 17 21
M  V30 19 1 22 23
M  V30 20 1 23 24
M  V30 21 1 22 25
M  V30 22 1 23 26
M  V30 23 1 24 27
M  V30 24 1 24 28
M  V30 25 1 29 30
M  V30 26 1 30 31
M  V30 27 1 29 32
M  V30 28 1 29 33
M  V30 29 1 30 34
M  V30 30 1 31 35
M  V30 31 1 31 36
M  V30 32 1 37 38
M  V30 33 1 38 39
M  V30 34 1 37 40
M  V30 35 1 37 41
M  V30 36 1 38 42
M  V30 37 1 39 43
M  V30 38 1 39 44
M  V30 39 1 45 46
M  V30 40 1 46 47
M  V30 41 1 45 48
M  V30 42 1 45 49
M  V30 43 1 46 50
M  V30 44 1 47 51
M  V30 45 1 47 52
M  V30 46 1 53 54
M  V30 47 1 54 55
M  V30 48 1 53 56
M  V30 49 1 53 57
M  V30 50 1 54 58
M  V30 51 1 55 59
M  V30 52 1 55 60
M  V30 53 1 61 62
M  V30 54 1 62 63
M  V30 55 1 61 64
M  V30 56 1 61 65
M  V30 57 1 62 66
M  V30 58 1 63 67
M  V30 59 1 63 68
M  V30 60 1 69 70
M  V30 61 1 70 71
M  V30 62 1 69 72
M  V30 63 1 69 73
M  V30 64 1 70 74
M  V30 65 1 71 75
M  V30 66 1 71 76
M  V30 67 1 1 29
M  V30 68 1 3 53
M  V30 69 1 1 37
M  V30 70 1 8 69
M  V30 71 1 8 45
M  V30 72 1 10 31
M  V30 73 1 15 61
M  V30 74 1 15 71
M  V30 75 1 17 55
M  V30 76 1 22 47
M  V30 77 1 24 63
M  V30 78 1 22 39
M  V30 END BOND
M  V30 END CTAB
M  END

$$$$
