
     RDKit          3D

  0  0  0  0  0  0  0  0  0  0999 V3000
M  V30 BEGIN CTAB
M  V30 COUNTS 76 78 0 0 0
M  V30 BEGIN ATOM
M  V30 1 C 5.6794 3.0991 0.7964 0
M  V30 2 B 4.3121 3.9164 0.8665 0
M  V30 3 C 2.9030 3.1585 0.7742 0
M  V30 4 H 5.4210 2.0211 0.9218 0
M  V30 5 H 4.2685 5.0733 0.5834 0
M  V30 6 H 2.1666 3.6057 1.4566 0
M  V30 7 H 2.5497 3.1283 -0.2813 0
M  V30 8 C 0.5532 -2.8148 3.3311 0
M  V30 9 B -0.8141 -1.9974 3.4012 0
M  V30 10 C -2.2232 -2.7553 3.3089 0
M  V30 11 H 0.2948 -3.8928 3.4565 0
M  V30 12 H -0.8577 -0.8405 3.1181 0
M  V30 13 H -2.9596 -2.3081 3.9913 0
M  V30 14 H -2.5765 -2.7855 2.2534 0
M  V30 15 C -2.6150 3.0991 -0.7701 0
M  V30 16 B -3.9822 3.9164 -0.7001 0
M  V30 17 C -5.3913 3.1585 -0.7924 0
M  V30 18 H -2.8734 2.0211 -0.6447 0
M  V30 19 H -4.0259 5.0733 -0.9831 0
M  V30 20 H -6.1277 3.6057 -0.1100 0
M  V30 21 H -5.7447 3.1283 -1.8478 0
M  V30 22 C 2.5112 -2.8148 -3.3048 0
M  V30 23 B 1.1440 -1.9974 -3.2348 0
M  V30 24 C -0.2651 -2.7553 -3.3271 0
M  V30 25 H 2.2528 -3.8928 -3.1794 0
M  V30 26 H 1.1003 -0.8405 -3.5178 0
M  V30 27 H -1.0015 -2.3081 -2.6447 0
M  V30 28 H -0.6184 -2.7855 -4.3825 0
M  V30 29 C 1.3490 -3.6099 0.1038 0
M  V30 30 N 0.1939 -4.1775 -0.5170 0
M  V30 31 C -1.0610 -3.6206 -0.0998 0
M  V30 32 H 1.4006 -3.7979 1.1968 0
M  V30 33 H 2.2498 -4.0720 -0.3291 0
M  V30 34 H 0.1538 -5.2005 -0.3167 0
M  V30 35 H -1.2895 -3.9067 0.9458 0
M  V30 36 H -1.8433 -4.1147 -0.7402 0
M  V30 37 C 1.3490 -3.6099 0.1038 0
M  V30 38 N 0.1939 -4.1775 -0.5170 0
M  V30 39 C -1.0610 -3.6206 -0.0998 0
M  V30 40 H 1.4006 -3.7979 1.1968 0
M  V30 41 H 2.2498 -4.0720 -0.3291 0
M  V30 42 H 0.1538 -5.2005 -0.3167 0
M  V30 43 H -1.2895 -3.9067 0.9458 0
M  V30 44 H -1.8433 -4.1147 -0.7402 0
M  V30 45 C -3.1534 3.9644 -2.9864 0
M  V30 46 N -4.3085 3.3968 -3.6071 0
M  V30 47 C -5.5633 3.9537 -3.1899 0
M  V30 48 H -3.1018 3.7764 -1.8934 0
M  V30 49 H -2.2525 3.5023 -3.4193 0
M  V30 50 H -4.3485 2.3738 -3.4069 0
M  V30 51 H -5.7919 3.6676 -2.1444 0
M  V30 52 H -6.3456 3.4596 -3.8304 0
M  V30 53 C 5.8513 3.9644 3.1940 0
M  V30 54 N 4.6962 3.3968 2.5732 0
M  V30 55 C 3.4414 3.9537 2.9904 0
M  V30 56 H 5.9029 3.7764 4.2869 0
M  V30 57 H 6.7522 3.5023 2.7611 0
M  V30 58 H 4.6562 2.3738 2.7734 0
M  V30 59 H 3.2128 3.6676 4.0360 0
M  V30 60 H 2.6590 3.4596 2.3499 0
M  V30 61 C -1.4336 0.1772 5.1038 0
M  V30 62 N -2.5887 -0.3903 4.4830 0
M  V30 63 C -3.8436 0.1665 4.9002 0
M  V30 64 H -1.3820 -0.0107 6.1968 0
M  V30 65 H -0.5328 -0.2849 4.6709 0
M  V30 66 H -2.6288 -1.4134 4.6833 0
M  V30 67 H -4.0721 -0.1195 5.9458 0
M  V30 68 H -4.6259 -0.3276 4.2598 0
M  V30 69 C 4.1316 0.1772 -4.8962 0
M  V30 70 N 2.9765 -0.3903 -5.5170 0
M  V30 71 C 1.7216 0.1665 -5.0998 0
M  V30 72 H 4.1832 -0.0107 -3.8032 0
M  V30 73 H 5.0324 -0.2849 -5.3291 0
M  V30 74 H 2.9364 -1.4134 -5.3167 0
M  V30 75 H 1.4931 -0.1195 -4.0542 0
M  V30 76 H 0.9393 -0.3276 -5.7402 0
M  V30 END ATOM
M  V30 BEGIN BOND
M  V30 1 1 1 2
M  V30 2 1 2 3
M  V30 3 1 1 4
M  V30 4 1 2 5
M  V30 5 1 3 6
M  V30 6 1 3 7
M  V30 7 1 8 9
M  V30 8 1 9 10
M  V30 9 1 8 11
M  V30 10 1 9 12
M  V30 11 1 10 13
M  V30 12 1 10 14
M  V30 13 1 15 16
M  V30 14 1 16 17
M  V30 15 1 15 18
M  V30 16 1 16 19
M  V30 17 1 17 20
M  V30 18 1 17 21
M  V30 19 1 22 23
M  V30 20 1 23 24
M  V30 21 1 22 25
M  V30 22 1 23 26
M  V30 23 1 24 27
M  V30 24 1 24 28
M  V30 25 1 29 30
M  V30 26 1 30 31
M  V30 27 1 29 32
M  V30 28 1 29 33
M  V30 29 1 30 34
M  V30 30 1 31 35
M  V30 31 1 31 36
M  V30 32 1 37 38
M  V30 33 1 38 39
M  V30 34 1 37 40
M  V30 35 1 37 41
M  V30 36 1 38 42
M  V30 37 1 39 43
M  V30 38 1 39 44
M  V30 39 1 45 46
M  V30 40 1 46 47
M  V30 41 1 45 48
M  V30 42 1 45 49
M  V30 43 1 46 50
M  V30 44 1 47 51
M  V30 45 1 47 52
M  V30 46 1 53 54
M  V30 47 1 54 55
M  V30 48 1 53 56
M  V30 49 1 53 57
M  V30 50 1 54 58
M  V30 51 1 55 59
M  V30 52 1 55 60
M  V30 53 1 61 62
M  V30 54 1 62 63
M  V30 55 1 61 64
M  V30 56 1 61 65
M  V30 57 1 62 66
M  V30 58 1 63 67
M  V30 59 1 63 68
M  V30 60 1 69 70
M  V30 61 1 70 71
M  V30 62 1 69 72
M  V30 63 1 69 73
M  V30 64 1 70 74
M  V30 65 1 71 75
M  V30 66 1 71 76
M  V30 67 1 1 69
M  V30 68 1 1 53
M  V30 69 1 3 55
M  V30 70 1 8 37
M  V30 71 1 8 61
M  V30 72 1 10 29
M  V30 73 1 15 45
M  V30 74 1 15 47
M  V30 75 1 17 63
M  V30 76 1 22 31
M  V30 77 1 22 39
M  V30 78 1 24 71
M  V30 END BOND
M  V30 END CTAB
M  END

$$$$
