
     RDKit          3D

  0  0  0  0  0  0  0  0  0  0999 V3000
M  V30 BEGIN CTAB
M  V30 COUNTS 76 78 0 0 0
M  V30 BEGIN ATOM
M  V30 1 C 1.9023 -0.5881 3.4119 0
M  V30 2 B 0.5351 0.2293 3.4820 0
M  V30 3 C -0.8741 -0.5286 3.3896 0
M  V30 4 H 1.6439 -1.6661 3.5373 0
M  V30 5 H 0.4914 1.3862 3.1989 0
M  V30 6 H -1.6104 -0.0814 4.0720 0
M  V30 7 H -1.2274 -0.5588 2.3342 0
M  V30 8 C 1.5321 0.1423 0.0134 0
M  V30 9 B 0.1649 0.9596 0.0835 0
M  V30 10 C -1.2442 0.2017 -0.0089 0
M  V30 11 H 1.2737 -0.9357 0.1388 0
M  V30 12 H 0.1213 2.1165 -0.1996 0
M  V30 13 H -1.9806 0.6489 0.6735 0
M  V30 14 H -1.5975 0.1715 -1.0643 0
M  V30 15 C -0.9041 2.4225 -1.0286 0
M  V30 16 B -2.2713 3.2399 -0.9585 0
M  V30 17 C -3.6804 2.4820 -1.0508 0
M  V30 18 H -1.1624 1.3445 -0.9032 0
M  V30 19 H -2.3149 4.3968 -1.2416 0
M  V30 20 H -4.4168 2.9292 -0.3684 0
M  V30 21 H -4.0337 2.4518 -2.1063 0
M  V30 22 C 3.5975 -1.4070 -2.3433 0
M  V30 23 B 2.2303 -0.5897 -2.2732 0
M  V30 24 C 0.8212 -1.3476 -2.3656 0
M  V30 25 H 3.3391 -2.4850 -2.2179 0
M  V30 26 H 2.1867 0.5672 -2.5563 0
M  V30 27 H 0.0848 -0.9004 -1.6832 0
M  V30 28 H 0.4679 -1.3778 -3.4210 0
M  V30 29 C 0.0914 1.3559 -0.4342 0
M  V30 30 N -1.0637 0.7884 -1.0550 0
M  V30 31 C -2.3185 1.3452 -0.6378 0
M  V30 32 H 0.1430 1.1680 0.6587 0
M  V30 33 H 0.9923 0.8938 -0.8672 0
M  V30 34 H -1.1037 -0.2347 -0.8548 0
M  V30 35 H -2.5471 1.0592 0.4078 0
M  V30 36 H -3.1009 0.8511 -1.2783 0
M  V30 37 C 2.4163 -0.6226 -1.1129 0
M  V30 38 N 1.2612 -1.1901 -1.7337 0
M  V30 39 C 0.0063 -0.6333 -1.3165 0
M  V30 40 H 2.4679 -0.8105 -0.0199 0
M  V30 41 H 3.3171 -1.0847 -1.5458 0
M  V30 42 H 1.2211 -2.2132 -1.5335 0
M  V30 43 H -0.2222 -0.9194 -0.2709 0
M  V30 44 H -0.7760 -1.1274 -1.9569 0
M  V30 45 C 4.3867 -2.1048 -3.3624 0
M  V30 46 N 3.2316 -2.6724 -3.9831 0
M  V30 47 C 1.9768 -2.1155 -3.5659 0
M  V30 48 H 4.4383 -2.2927 -2.2694 0
M  V30 49 H 5.2875 -2.5669 -3.7953 0
M  V30 50 H 3.1916 -3.6954 -3.7829 0
M  V30 51 H 1.7482 -2.4016 -2.5204 0
M  V30 52 H 1.1944 -2.6096 -4.2064 0
M  V30 53 C 1.8949 -0.8982 5.1038 0
M  V30 54 N 0.7398 -1.4657 4.4830 0
M  V30 55 C -0.5151 -0.9089 4.9002 0
M  V30 56 H 1.9465 -1.0861 6.1968 0
M  V30 57 H 2.7957 -1.3603 4.6709 0
M  V30 58 H 0.6997 -2.4888 4.6833 0
M  V30 59 H -0.7436 -1.1949 5.9458 0
M  V30 60 H -1.2974 -1.4030 4.2598 0
M  V30 61 C 1.5398 -0.2001 1.8594 0
M  V30 62 N 0.3847 -0.7677 1.2386 0
M  V30 63 C -0.8702 -0.2108 1.6558 0
M  V30 64 H 1.5914 -0.3881 2.9524 0
M  V30 65 H 2.4406 -0.6622 1.4265 0
M  V30 66 H 0.3446 -1.7907 1.4389 0
M  V30 67 H -1.0987 -0.4969 2.7014 0
M  V30 68 H -1.6525 -0.7049 1.0154 0
M  V30 69 C -2.2344 3.5321 -1.4316 0
M  V30 70 N -3.3895 2.9645 -2.0524 0
M  V30 71 C -4.6443 3.5214 -1.6352 0
M  V30 72 H -2.1828 3.3442 -0.3387 0
M  V30 73 H -1.3335 3.0700 -1.8645 0
M  V30 74 H -3.4295 1.9415 -1.8522 0
M  V30 75 H -4.8729 3.2353 -0.5896 0
M  V30 76 H -5.4267 3.0273 -2.2756 0
M  V30 END ATOM
M  V30 BEGIN BOND
M  V30 1 1 1 2
M  V30 2 1 2 3
M  V30 3 1 1 4
M  V30 4 1 2 5
M  V30 5 1 3 6
M  V30 6 1 3 7
M  V30 7 1 8 9
M  V30 8 1 9 10
M  V30 9 1 8 11
M  V30 10 1 9 12
M  V30 11 1 10 13
M  V30 12 1 10 14
M  V30 13 1 15 16
M  V30 14 1 16 17
M  V30 15 1 15 18
M  V30 16 1 16 19
M  V30 17 1 17 20
M  V30 18 1 17 21
M  V30 19 1 22 23
M  V30 20 1 23 24
M  V30 21 1 22 25
M  V30 22 1 23 26
M  V30 23 1 24 27
M  V30 24 1 24 28
M  V30 25 1 29 30
M  V30 26 1 30 31
M  V30 27 1 29 32
M  V30 28 1 29 33
M  V30 29 1 30 34
M  V30 30 1 31 35
M  V30 31 1 31 36
M  V30 32 1 37 38
M  V30 33 1 38 39
M  V30 34 1 37 40
M  V30 35 1 37 41
M  V30 36 1 38 42
M  V30 37 1 39 43
M  V30 38 1 39 44
M  V30 39 1 45 46
M  V30 40 1 46 47
M  V30 41 1 45 48
M  V30 42 1 45 49
M  V30 43 1 46 50
M  V30 44 1 47 51
M  V30 45 1 47 52
M  V30 46 1 53 54
M  V30 47 1 54 55
M  V30 48 1 53 56
M  V30 49 1 53 57
M  V30 50 1 54 58
M  V30 51 1 55 59
M  V30 52 1 55 60
M  V30 53 1 61 62
M  V30 54 1 62 63
M  V30 55 1 61 64
M  V30 56 1 61 65
M  V30 57 1 62 66
M  V30 58 1 63 67
M  V30 59 1 63 68
M  V30 60 1 69 70
M  V30 61 1 70 71
M  V30 62 1 69 72
M  V30 63 1 69 73
M  V30 64 1 70 74
M  V30 65 1 71 75
M  V30 66 1 71 76
M  V30 67 1 1 53
M  V30 68 1 1 61
M  V30 69 1 3 55
M  V30 70 1 8 37
M  V30 71 1 8 63
M  V30 72 1 10 29
M  V30 73 1 15 69
M  V30 74 1 15 71
M  V30 75 1 17 31
M  V30 76 1 22 45
M  V30 77 1 22 39
M  V30 78 1 24 47
M  V30 END BOND
M  V30 END CTAB
M  END

$$$$
