
     RDKit          3D

  0  0  0  0  0  0  0  0  0  0999 V3000
M  V30 BEGIN CTAB
M  V30 COUNTS 76 78 0 0 0
M  V30 BEGIN ATOM
M  V30 1 C 3.7493 -0.4306 3.2731 0
M  V30 2 B 2.3821 0.3868 3.3431 0
M  V30 3 C 0.9730 -0.3711 3.2508 0
M  V30 4 H 3.4909 -1.5086 3.3985 0
M  V30 5 H 2.3385 1.5437 3.0601 0
M  V30 6 H 0.2366 0.0761 3.9332 0
M  V30 7 H 0.6197 -0.4013 2.1954 0
M  V30 8 C 1.5320 0.1420 0.0132 0
M  V30 9 B 0.1647 0.9593 0.0833 0
M  V30 10 C -1.2444 0.2014 -0.0091 0
M  V30 11 H 1.2736 -0.9360 0.1386 0
M  V30 12 H 0.1211 2.1163 -0.1998 0
M  V30 13 H -1.9808 0.6487 0.6734 0
M  V30 14 H -1.5977 0.1712 -1.0645 0
M  V30 15 C 2.4716 -1.7116 -3.3856 0
M  V30 16 B 1.1044 -0.8943 -3.3156 0
M  V30 17 C -0.3047 -1.6522 -3.4079 0
M  V30 18 H 2.2132 -2.7896 -3.2602 0
M  V30 19 H 1.0608 0.2626 -3.5986 0
M  V30 20 H -1.0411 -1.2049 -2.7255 0
M  V30 21 H -0.6580 -1.6824 -4.4634 0
M  V30 22 C -1.6247 2.5683 0.1518 0
M  V30 23 B -2.9920 3.3856 0.2218 0
M  V30 24 C -4.4011 2.6277 0.1295 0
M  V30 25 H -1.8831 1.4903 0.2772 0
M  V30 26 H -3.0356 4.5425 -0.0612 0
M  V30 27 H -5.1375 3.0749 0.8119 0
M  V30 28 H -4.7544 2.5975 -0.9259 0
M  V30 29 C 1.8342 -0.7803 -1.6517 0
M  V30 30 N 0.6791 -1.3478 -2.2725 0
M  V30 31 C -0.5757 -0.7910 -1.8552 0
M  V30 32 H 1.8858 -0.9682 -0.5587 0
M  V30 33 H 2.7351 -1.2424 -2.0846 0
M  V30 34 H 0.6391 -2.3709 -2.0722 0
M  V30 35 H -0.8043 -1.0771 -0.8097 0
M  V30 36 H -1.3580 -1.2851 -2.4957 0
M  V30 37 C -0.2816 1.4303 0.1756 0
M  V30 38 N -1.4368 0.8628 -0.4452 0
M  V30 39 C -2.6916 1.4196 -0.0280 0
M  V30 40 H -0.2300 1.2424 1.2685 0
M  V30 41 H 0.6192 0.9682 -0.2573 0
M  V30 42 H -1.4768 -0.1603 -0.2450 0
M  V30 43 H -2.9201 1.1336 1.0176 0
M  V30 44 H -3.4739 0.9255 -0.6685 0
M  V30 45 C -3.2950 3.7477 0.3077 0
M  V30 46 N -4.4501 3.1802 -0.3131 0
M  V30 47 C -5.7049 3.7370 0.1041 0
M  V30 48 H -3.2434 3.5598 1.4006 0
M  V30 49 H -2.3941 3.2856 -0.1252 0
M  V30 50 H -4.4901 2.1571 -0.1129 0
M  V30 51 H -5.9335 3.4510 1.1497 0
M  V30 52 H -6.4872 3.2429 -0.5364 0
M  V30 53 C 4.6115 -0.6641 4.9000 0
M  V30 54 N 3.4563 -1.2317 4.2792 0
M  V30 55 C 2.2015 -0.6748 4.6964 0
M  V30 56 H 4.6631 -0.8521 5.9929 0
M  V30 57 H 5.5123 -1.1262 4.4671 0
M  V30 58 H 3.4163 -2.2547 4.4794 0
M  V30 59 H 1.9730 -0.9609 5.7420 0
M  V30 60 H 1.4192 -1.1689 4.0559 0
M  V30 61 C 2.4941 -0.1186 1.7876 0
M  V30 62 N 1.3390 -0.6861 1.1668 0
M  V30 63 C 0.0841 -0.1293 1.5840 0
M  V30 64 H 2.5457 -0.3065 2.8806 0
M  V30 65 H 3.3949 -0.5807 1.3547 0
M  V30 66 H 1.2989 -1.7092 1.3671 0
M  V30 67 H -0.1444 -0.4153 2.6296 0
M  V30 68 H -0.6982 -0.6234 0.9436 0
M  V30 69 C 2.7311 -2.5513 -4.8962 0
M  V30 70 N 1.5760 -3.1188 -5.5170 0
M  V30 71 C 0.3212 -2.5620 -5.0998 0
M  V30 72 H 2.7827 -2.7392 -3.8032 0
M  V30 73 H 3.6320 -3.0134 -5.3291 0
M  V30 74 H 1.5360 -4.1419 -5.3167 0
M  V30 75 H 0.0927 -2.8480 -4.0542 0
M  V30 76 H -0.4611 -3.0561 -5.7402 0
M  V30 END ATOM
M  V30 BEGIN BOND
M  V30 1 1 1 2
M  V30 2 1 2 3
M  V30 3 1 1 4
M  V30 4 1 2 5
M  V30 5 1 3 6
M  V30 6 1 3 7
M  V30 7 1 8 9
M  V30 8 1 9 10
M  V30 9 1 8 11
M  V30 10 1 9 12
M  V30 11 1 10 13
M  V30 12 1 10 14
M  V30 13 1 15 16
M  V30 14 1 16 17
M  V30 15 1 15 18
M  V30 16 1 16 19
M  V30 17 1 17 20
M  V30 18 1 17 21
M  V30 19 1 22 23
M  V30 20 1 23 24
M  V30 21 1 22 25
M  V30 22 1 23 26
M  V30 23 1 24 27
M  V30 24 1 24 28
M  V30 25 1 29 30
M  V30 26 1 30 31
M  V30 27 1 29 32
M  V30 28 1 29 33
M  V30 29 1 30 34
M  V30 30 1 31 35
M  V30 31 1 31 36
M  V30 32 1 37 38
M  V30 33 1 38 39
M  V30 34 1 37 40
M  V30 35 1 37 41
M  V30 36 1 38 42
M  V30 37 1 39 43
M  V30 38 1 39 44
M  V30 39 1 45 46
M  V30 40 1 46 47
M  V30 41 1 45 48
M  V30 42 1 45 49
M  V30 43 1 46 50
M  V30 44 1 47 51
M  V30 45 1 47 52
M  V30 46 1 53 54
M  V30 47 1 54 55
M  V30 48 1 53 56
M  V30 49 1 53 57
M  V30 50 1 54 58
M  V30 51 1 55 59
M  V30 52 1 55 60
M  V30 53 1 61 62
M  V30 54 1 62 63
M  V30 55 1 61 64
M  V30 56 1 61 65
M  V30 57 1 62 66
M  V30 58 1 63 67
M  V30 59 1 63 68
M  V30 60 1 69 70
M  V30 61 1 70 71
M  V30 62 1 69 72
M  V30 63 1 69 73
M  V30 64 1 70 74
M  V30 65 1 71 75
M  V30 66 1 71 76
M  V30 67 1 1 53
M  V30 68 1 1 61
M  V30 69 1 3 55
M  V30 70 1 8 37
M  V30 71 1 8 63
M  V30 72 1 10 29
M  V30 73 1 15 69
M  V30 74 1 15 71
M  V30 75 1 17 31
M  V30 76 1 22 45
M  V30 77 1 22 39
M  V30 78 1 24 47
M  V30 END BOND
M  V30 END CTAB
M  END

$$$$
