
     RDKit          3D

  0  0  0  0  0  0  0  0  0  0999 V3000
M  V30 BEGIN CTAB
M  V30 COUNTS 76 78 0 0 0
M  V30 BEGIN ATOM
M  V30 1 C 1.7623 -0.1340 0.2601 0
M  V30 2 B 0.5058 -0.9538 -0.2797 0
M  V30 3 C -0.8509 -1.0211 0.5709 0
M  V30 4 H 1.4013 0.4935 1.1089 0
M  V30 5 H 0.6371 -1.8380 -1.0681 0
M  V30 6 H -1.7323 -0.9714 -0.0837 0
M  V30 7 H -0.8510 -1.9213 1.2262 0
M  V30 8 C -0.5106 1.6331 0.7783 0
M  V30 9 B -1.0911 0.5447 -0.2319 0
M  V30 10 C -0.2424 0.0843 -1.5111 0
M  V30 11 H 0.5720 1.7552 0.5384 0
M  V30 12 H -2.2631 0.3477 -0.3217 0
M  V30 13 H -0.3514 -0.9942 -1.6922 0
M  V30 14 H -0.5162 0.6999 -2.3975 0
M  V30 15 C 0.1421 1.0351 -1.1983 0
M  V30 16 B 0.1756 -0.5247 -0.8692 0
M  V30 17 C 1.3082 -1.1323 0.0882 0
M  V30 18 H 0.8367 1.5339 -0.4818 0
M  V30 19 H -0.3346 -1.3205 -1.5950 0
M  V30 20 H 0.8970 -1.9135 0.7429 0
M  V30 21 H 2.1737 -1.4875 -0.5154 0
M  V30 22 C -0.4729 1.7070 0.6428 0
M  V30 23 B -0.0022 0.2410 1.0570 0
M  V30 24 C -0.8190 -1.0474 0.5654 0
M  V30 25 H -1.2310 1.5888 -0.1671 0
M  V30 26 H 0.6712 0.0580 2.0231 0
M  V30 27 H -0.1403 -1.8717 0.3051 0
M  V30 28 H -1.5768 -1.3376 1.3277 0
M  V30 29 C -0.1649 1.5838 -0.6633 0
M  V30 30 N 0.1564 1.3466 0.7087 0
M  V30 31 C -0.7303 0.4549 1.3996 0
M  V30 32 H -1.1308 2.1123 -0.8059 0
M  V30 33 H 0.6075 2.2336 -1.1033 0
M  V30 34 H 0.1491 2.2487 1.2327 0
M  V30 35 H -1.7217 0.9257 1.5508 0
M  V30 36 H -0.2873 0.3160 2.4247 0
M  V30 37 C -0.6760 1.0504 -1.0959 0
M  V30 38 N -1.6352 0.8507 -0.0558 0
M  V30 39 C -1.2447 -0.0768 0.9670 0
M  V30 40 H -0.4931 0.1428 -1.7085 0
M  V30 41 H -1.0564 1.8163 -1.7895 0
M  V30 42 H -2.5274 0.4954 -0.4635 0
M  V30 43 H -1.2251 -1.1117 0.5723 0
M  V30 44 H -2.0657 -0.0480 1.7361 0
M  V30 45 C -0.6848 1.2980 -0.5448 0
M  V30 46 N 0.0318 0.4372 -1.4320 0
M  V30 47 C 1.1669 -0.2261 -0.8572 0
M  V30 48 H -0.0930 2.1735 -0.2046 0
M  V30 49 H -1.5598 1.7068 -1.0738 0
M  V30 50 H 0.3812 0.9852 -2.2480 0
M  V30 51 H 1.9807 0.4964 -0.6499 0
M  V30 52 H 1.5546 -0.9173 -1.6561 0
M  V30 53 C 0.2407 -1.3018 0.7118 0
M  V30 54 N 0.9942 -1.3179 -0.5021 0
M  V30 55 C 0.8133 -0.1746 -1.3500 0
M  V30 56 H -0.8570 -1.3440 0.5511 0
M  V30 57 H 0.4980 -2.1943 1.3032 0
M  V30 58 H 0.7363 -2.1575 -1.0651 0
M  V30 59 H -0.2008 -0.1728 -1.7960 0
M  V30 60 H 1.5334 -0.3098 -2.2041 0
M  V30 61 C 0.7530 -0.7637 1.1473 0
M  V30 62 N 1.3189 0.3855 0.5142 0
M  V30 63 C 1.3262 0.3526 -0.9202 0
M  V30 64 H 1.3317 -1.6948 0.9718 0
M  V30 65 H 0.7506 -0.6056 2.2370 0
M  V30 66 H 2.3091 0.5039 0.8204 0
M  V30 67 H 2.0476 -0.4014 -1.2923 0
M  V30 68 H 1.7202 1.3546 -1.2475 0
M  V30 69 C 0.7637 -1.0172 0.5933 0
M  V30 70 N -0.6172 -0.8481 0.9193 0
M  V30 71 C -1.0874 0.5075 0.9068 0
M  V30 72 H 1.4520 -0.5602 1.3348 0
M  V30 73 H 0.9980 -2.0930 0.5806 0
M  V30 74 H -0.8018 -1.2249 1.8744 0
M  V30 75 H -0.6566 1.0805 1.7513 0
M  V30 76 H -2.1949 0.4492 1.0975 0
M  V30 END ATOM
M  V30 BEGIN BOND
M  V30 1 1 1 2
M  V30 2 1 2 3
M  V30 3 1 1 4
M  V30 4 1 2 5
M  V30 5 1 3 6
M  V30 6 1 3 7
M  V30 7 1 8 9
M  V30 8 1 9 10
M  V30 9 1 8 11
M  V30 10 1 9 12
M  V30 11 1 10 13
M  V30 12 1 10 14
M  V30 13 1 15 16
M  V30 14 1 16 17
M  V30 15 1 15 18
M  V30 16 1 16 19
M  V30 17 1 17 20
M  V30 18 1 17 21
M  V30 19 1 22 23
M  V30 20 1 23 24
M  V30 21 1 22 25
M  V30 22 1 23 26
M  V30 23 1 24 27
M  V30 24 1 24 28
M  V30 25 1 29 30
M  V30 26 1 30 31
M  V30 27 1 29 32
M  V30 28 1 29 33
M  V30 29 1 30 34
M  V30 30 1 31 35
M  V30 31 1 31 36
M  V30 32 1 37 38
M  V30 33 1 38 39
M  V30 34 1 37 40
M  V30 35 1 37 41
M  V30 36 1 38 42
M  V30 37 1 39 43
M  V30 38 1 39 44
M  V30 39 1 45 46
M  V30 40 1 46 47
M  V30 41 1 45 48
M  V30 42 1 45 49
M  V30 43 1 46 50
M  V30 44 1 47 51
M  V30 45 1 47 52
M  V30 46 1 53 54
M  V30 47 1 54 55
M  V30 48 1 53 56
M  V30 49 1 53 57
M  V30 50 1 54 58
M  V30 51 1 55 59
M  V30 52 1 55 60
M  V30 53 1 61 62
M  V30 54 1 62 63
M  V30 55 1 61 64
M  V30 56 1 61 65
M  V30 57 1 62 66
M  V30 58 1 63 67
M  V30 59 1 63 68
M  V30 60 1 69 70
M  V30 61 1 70 71
M  V30 62 1 69 72
M  V30 63 1 69 73
M  V30 64 1 70 74
M  V30 65 1 71 75
M  V30 66 1 71 76
M  V30 67 1 1 61
M  V30 68 1 1 69
M  V30 69 1 3 53
M  V30 70 1 8 29
M  V30 71 1 10 37
M  V30 72 1 8 45
M  V30 73 1 15 47
M  V30 74 1 17 55
M  V30 75 1 15 63
M  V30 76 1 22 31
M  V30 77 1 22 39
M  V30 78 1 24 71
M  V30 END BOND
M  V30 END CTAB
M  END

$$$$
