
     RDKit          3D

  0  0  0  0  0  0  0  0  0  0999 V3000
M  V30 BEGIN CTAB
M  V30 COUNTS 76 78 0 0 0
M  V30 BEGIN ATOM
M  V30 1 C -5.0402 1.1239 -2.3664 0
M  V30 2 B -4.6120 -0.2472 -3.0585 0
M  V30 3 C -3.9145 -1.4095 -2.2035 0
M  V30 4 H -4.9804 0.9647 -1.2639 0
M  V30 5 H -4.4122 -0.3113 -4.2317 0
M  V30 6 H -4.2737 -2.4006 -2.5143 0
M  V30 7 H -2.8063 -1.3163 -2.2579 0
M  V30 8 C 5.1274 -1.1321 2.5027 0
M  V30 9 B 5.0427 0.3029 1.8129 0
M  V30 10 C 3.9995 1.4002 2.3383 0
M  V30 11 H 4.5539 -1.0687 3.4575 0
M  V30 12 H 5.4151 0.4735 0.6936 0
M  V30 13 H 4.4399 2.4070 2.3199 0
M  V30 14 H 3.0487 1.3353 1.7625 0
M  V30 15 C 0.0515 4.0103 -2.1892 0
M  V30 16 B -0.8315 3.9881 -3.5167 0
M  V30 17 C -2.4270 3.8619 -3.4331 0
M  V30 18 H -0.6490 4.1651 -1.3349 0
M  V30 19 H -0.3657 3.6594 -4.5633 0
M  V30 20 H -2.9150 4.4932 -4.1889 0
M  V30 21 H -2.7335 2.7937 -3.5008 0
M  V30 22 C 2.6275 -4.2048 2.8852 0
M  V30 23 B 1.2802 -4.0330 3.7205 0
M  V30 24 C -0.1005 -3.6939 2.9808 0
M  V30 25 H 2.3368 -4.2827 1.8110 0
M  V30 26 H 1.3024 -3.7468 4.8772 0
M  V30 27 H -0.9396 -4.2359 3.4391 0
M  V30 28 H -0.2627 -2.5927 2.9528 0
M  V30 29 C 5.5859 -2.5042 2.4984 0
M  V30 30 N 5.2048 -3.8062 2.0498 0
M  V30 31 C 4.0845 -4.3856 2.7339 0
M  V30 32 H 5.9603 -2.4888 3.5435 0
M  V30 33 H 6.4141 -2.1392 1.8712 0
M  V30 34 H 6.0049 -4.4658 2.1643 0
M  V30 35 H 4.3546 -4.6521 3.7746 0
M  V30 36 H 3.8711 -5.3557 2.2050 0
M  V30 37 C 4.2999 -1.1735 4.9463 0
M  V30 38 N 4.0937 -2.5006 5.4341 0
M  V30 39 C 2.7923 -3.0499 5.1822 0
M  V30 40 H 3.6625 -0.4147 5.4467 0
M  V30 41 H 5.3417 -0.8780 5.1460 0
M  V30 42 H 4.2376 -2.5219 6.4672 0
M  V30 43 H 2.0243 -2.5376 5.7946 0
M  V30 44 H 2.8320 -4.1126 5.5502 0
M  V30 45 C 3.3558 2.6573 0.4382 0
M  V30 46 N 2.6610 3.8328 0.0173 0
M  V30 47 C 1.8198 3.6675 -1.1333 0
M  V30 48 H 4.0992 2.2944 -0.3022 0
M  V30 49 H 3.9227 2.8868 1.3539 0
M  V30 50 H 3.3476 4.5835 -0.2137 0
M  V30 51 H 2.4284 3.5110 -2.0457 0
M  V30 52 H 1.2923 4.6519 -1.2709 0
M  V30 53 C -4.2209 1.1451 -4.8063 0
M  V30 54 N -3.1967 1.7760 -5.5774 0
M  V30 55 C -2.7201 3.0250 -5.0563 0
M  V30 56 H -5.1686 1.7226 -4.7737 0
M  V30 57 H -4.4686 0.1762 -5.2672 0
M  V30 58 H -3.5474 1.9632 -6.5419 0
M  V30 59 H -3.4942 3.8117 -5.1521 0
M  V30 60 H -1.8719 3.3336 -5.7285 0
M  V30 61 C -5.5022 2.4989 -2.3646 0
M  V30 62 N -5.2089 3.7312 -3.0258 0
M  V30 63 C -3.9971 4.3763 -2.6083 0
M  V30 64 H -5.7024 2.6166 -1.2789 0
M  V30 65 H -6.4181 2.0698 -2.7999 0
M  V30 66 H -5.9850 4.4096 -2.8657 0
M  V30 67 H -4.0974 4.7720 -1.5784 0
M  V30 68 H -3.8797 5.2714 -3.2801 0
M  V30 69 C -3.2989 -2.6209 -0.2518 0
M  V30 70 N -3.0562 -3.3310 0.9642 0
M  V30 71 C -1.6901 -3.7064 1.1914 0
M  V30 72 H -3.1035 -3.2247 -1.1627 0
M  V30 73 H -4.3625 -2.3388 -0.2938 0
M  V30 74 H -3.6188 -4.2094 0.9768 0
M  V30 75 H -1.3774 -4.4987 0.4831 0
M  V30 76 H -1.6668 -4.1717 2.2158 0
M  V30 END ATOM
M  V30 BEGIN BOND
M  V30 1 1 1 2
M  V30 2 1 2 3
M  V30 3 1 1 4
M  V30 4 1 2 5
M  V30 5 1 3 6
M  V30 6 1 3 7
M  V30 7 1 8 9
M  V30 8 1 9 10
M  V30 9 1 8 11
M  V30 10 1 9 12
M  V30 11 1 10 13
M  V30 12 1 10 14
M  V30 13 1 15 16
M  V30 14 1 16 17
M  V30 15 1 15 18
M  V30 16 1 16 19
M  V30 17 1 17 20
M  V30 18 1 17 21
M  V30 19 1 22 23
M  V30 20 1 23 24
M  V30 21 1 22 25
M  V30 22 1 23 26
M  V30 23 1 24 27
M  V30 24 1 24 28
M  V30 25 1 29 30
M  V30 26 1 30 31
M  V30 27 1 29 32
M  V30 28 1 29 33
M  V30 29 1 30 34
M  V30 30 1 31 35
M  V30 31 1 31 36
M  V30 32 1 37 38
M  V30 33 1 38 39
M  V30 34 1 37 40
M  V30 35 1 37 41
M  V30 36 1 38 42
M  V30 37 1 39 43
M  V30 38 1 39 44
M  V30 39 1 45 46
M  V30 40 1 46 47
M  V30 41 1 45 48
M  V30 42 1 45 49
M  V30 43 1 46 50
M  V30 44 1 47 51
M  V30 45 1 47 52
M  V30 46 1 53 54
M  V30 47 1 54 55
M  V30 48 1 53 56
M  V30 49 1 53 57
M  V30 50 1 54 58
M  V30 51 1 55 59
M  V30 52 1 55 60
M  V30 53 1 61 62
M  V30 54 1 62 63
M  V30 55 1 61 64
M  V30 56 1 61 65
M  V30 57 1 62 66
M  V30 58 1 63 67
M  V30 59 1 63 68
M  V30 60 1 69 70
M  V30 61 1 70 71
M  V30 62 1 69 72
M  V30 63 1 69 73
M  V30 64 1 70 74
M  V30 65 1 71 75
M  V30 66 1 71 76
M  V30 67 1 1 61
M  V30 68 1 1 69
M  V30 69 1 3 53
M  V30 70 1 8 29
M  V30 71 1 8 37
M  V30 72 1 10 45
M  V30 73 1 15 47
M  V30 74 1 17 55
M  V30 75 1 15 63
M  V30 76 1 22 31
M  V30 77 1 24 39
M  V30 78 1 22 71
M  V30 END BOND
M  V30 END CTAB
M  END

$$$$
