
     RDKit          3D

  0  0  0  0  0  0  0  0  0  0999 V3000
M  V30 BEGIN CTAB
M  V30 COUNTS 76 78 0 0 0
M  V30 BEGIN ATOM
M  V30 1 C 0.7878 0.1869 0.0193 0
M  V30 2 B -0.5795 1.0043 0.0894 0
M  V30 3 C -1.9886 0.2464 -0.0030 0
M  V30 4 H 0.5294 -0.8911 0.1447 0
M  V30 5 H -0.6231 2.1612 -0.1937 0
M  V30 6 H -2.7250 0.6936 0.6794 0
M  V30 7 H -2.3419 0.2162 -1.0584 0
M  V30 8 C 1.7530 0.1288 0.0113 0
M  V30 9 B 0.3857 0.9462 0.0814 0
M  V30 10 C -1.0234 0.1883 -0.0109 0
M  V30 11 H 1.4946 -0.9492 0.1368 0
M  V30 12 H 0.3421 2.1031 -0.2017 0
M  V30 13 H -1.7598 0.6355 0.6715 0
M  V30 14 H -1.3767 0.1581 -1.0664 0
M  V30 15 C 2.2766 0.0974 0.0069 0
M  V30 16 B 0.9094 0.9148 0.0770 0
M  V30 17 C -0.4997 0.1569 -0.0154 0
M  V30 18 H 2.0182 -0.9806 0.1323 0
M  V30 19 H 0.8658 2.0717 -0.2061 0
M  V30 20 H -1.2361 0.6041 0.6670 0
M  V30 21 H -0.8530 0.1267 -1.0708 0
M  V30 22 C 1.3114 0.1555 0.0150 0
M  V30 23 B -0.0558 0.9728 0.0851 0
M  V30 24 C -1.4649 0.2150 -0.0073 0
M  V30 25 H 1.0530 -0.9225 0.1404 0
M  V30 26 H -0.0995 2.1298 -0.1980 0
M  V30 27 H -2.2013 0.6622 0.6751 0
M  V30 28 H -1.8182 0.1848 -1.0627 0
M  V30 29 C 1.3491 0.2029 -0.0722 0
M  V30 30 N 0.1940 -0.3646 -0.6930 0
M  V30 31 C -1.0609 0.1922 -0.2758 0
M  V30 32 H 1.4007 0.0150 1.0207 0
M  V30 33 H 2.2499 -0.2592 -0.5051 0
M  V30 34 H 0.1539 -1.3877 -0.4928 0
M  V30 35 H -1.2894 -0.0939 0.7698 0
M  V30 36 H -1.8432 -0.3019 -0.9163 0
M  V30 37 C 1.3489 0.1516 0.2799 0
M  V30 38 N 0.1938 -0.4160 -0.3409 0
M  V30 39 C -1.0611 0.1408 0.0763 0
M  V30 40 H 1.4005 -0.0364 1.3728 0
M  V30 41 H 2.2497 -0.3106 -0.1530 0
M  V30 42 H 0.1537 -1.4391 -0.1407 0
M  V30 43 H -1.2896 -0.1452 1.1219 0
M  V30 44 H -1.8434 -0.3533 -0.5642 0
M  V30 45 C 2.3490 0.1169 0.0956 0
M  V30 46 N 1.1939 -0.4506 -0.5251 0
M  V30 47 C -0.0610 0.1062 -0.1079 0
M  V30 48 H 2.4006 -0.0710 1.1886 0
M  V30 49 H 3.2498 -0.3452 -0.3373 0
M  V30 50 H 1.1538 -1.4737 -0.3249 0
M  V30 51 H -0.2895 -0.1799 0.9376 0
M  V30 52 H -0.8433 -0.3879 -0.7484 0
M  V30 53 C 0.3490 0.2376 0.1119 0
M  V30 54 N -0.8061 -0.3299 -0.5089 0
M  V30 55 C -2.0610 0.2269 -0.0916 0
M  V30 56 H 0.4006 0.0497 1.2049 0
M  V30 57 H 1.2498 -0.2245 -0.3210 0
M  V30 58 H -0.8462 -1.3530 -0.3086 0
M  V30 59 H -2.2895 -0.0592 0.9539 0
M  V30 60 H -2.8433 -0.2672 -0.7321 0
M  V30 61 C 1.8357 0.1479 0.0998 0
M  V30 62 N 0.6806 -0.4196 -0.5210 0
M  V30 63 C -0.5743 0.1372 -0.1038 0
M  V30 64 H 1.8873 -0.0400 1.1928 0
M  V30 65 H 2.7365 -0.3142 -0.3331 0
M  V30 66 H 0.6405 -1.4427 -0.3207 0
M  V30 67 H -0.8028 -0.1489 0.9418 0
M  V30 68 H -1.3566 -0.3569 -0.7442 0
M  V30 69 C 0.8623 0.2064 0.1079 0
M  V30 70 N -0.2928 -0.3611 -0.5129 0
M  V30 71 C -1.5477 0.1957 -0.0957 0
M  V30 72 H 0.9139 0.0185 1.2008 0
M  V30 73 H 1.7631 -0.2557 -0.3250 0
M  V30 74 H -0.3329 -1.3842 -0.3127 0
M  V30 75 H -1.7762 -0.0903 0.9499 0
M  V30 76 H -2.3300 -0.2984 -0.7362 0
M  V30 END ATOM
M  V30 BEGIN BOND
M  V30 1 1 1 2
M  V30 2 1 2 3
M  V30 3 1 1 4
M  V30 4 1 2 5
M  V30 5 1 3 6
M  V30 6 1 3 7
M  V30 7 1 8 9
M  V30 8 1 9 10
M  V30 9 1 8 11
M  V30 10 1 9 12
M  V30 11 1 10 13
M  V30 12 1 10 14
M  V30 13 1 15 16
M  V30 14 1 16 17
M  V30 15 1 15 18
M  V30 16 1 16 19
M  V30 17 1 17 20
M  V30 18 1 17 21
M  V30 19 1 22 23
M  V30 20 1 23 24
M  V30 21 1 22 25
M  V30 22 1 23 26
M  V30 23 1 24 27
M  V30 24 1 24 28
M  V30 25 1 29 30
M  V30 26 1 30 31
M  V30 27 1 29 32
M  V30 28 1 29 33
M  V30 29 1 30 34
M  V30 30 1 31 35
M  V30 31 1 31 36
M  V30 32 1 37 38
M  V30 33 1 38 39
M  V30 34 1 37 40
M  V30 35 1 37 41
M  V30 36 1 38 42
M  V30 37 1 39 43
M  V30 38 1 39 44
M  V30 39 1 45 46
M  V30 40 1 46 47
M  V30 41 1 45 48
M  V30 42 1 45 49
M  V30 43 1 46 50
M  V30 44 1 47 51
M  V30 45 1 47 52
M  V30 46 1 53 54
M  V30 47 1 54 55
M  V30 48 1 53 56
M  V30 49 1 53 57
M  V30 50 1 54 58
M  V30 51 1 55 59
M  V30 52 1 55 60
M  V30 53 1 61 62
M  V30 54 1 62 63
M  V30 55 1 61 64
M  V30 56 1 61 65
M  V30 57 1 62 66
M  V30 58 1 63 67
M  V30 59 1 63 68
M  V30 60 1 69 70
M  V30 61 1 70 71
M  V30 62 1 69 72
M  V30 63 1 69 73
M  V30 64 1 70 74
M  V30 65 1 71 75
M  V30 66 1 71 76
M  V30 67 1 1 69
M  V30 68 1 1 53
M  V30 69 1 3 55
M  V30 70 1 8 37
M  V30 71 1 8 61
M  V30 72 1 10 29
M  V30 73 1 15 45
M  V30 74 1 15 47
M  V30 75 1 17 63
M  V30 76 1 22 31
M  V30 77 1 22 39
M  V30 78 1 24 71
M  V30 END BOND
M  V30 END CTAB
M  END

$$$$
