
     RDKit          3D

  0  0  0  0  0  0  0  0  0  0999 V3000
M  V30 BEGIN CTAB
M  V30 COUNTS 76 78 0 0 0
M  V30 BEGIN ATOM
M  V30 1 C 0.6925 1.4174 -0.5933 0
M  V30 2 B 0.7994 0.4264 0.6512 0
M  V30 3 C -0.4897 0.0967 1.5445 0
M  V30 4 H -0.3940 1.5699 -0.7956 0
M  V30 5 H 1.8404 0.2304 1.1975 0
M  V30 6 H -0.5042 -0.9603 1.8452 0
M  V30 7 H -0.5458 0.7923 2.4122 0
M  V30 8 C 1.2404 -0.9364 -0.8859 0
M  V30 9 B 0.8302 0.5825 -0.6269 0
M  V30 10 C -0.5565 1.1596 -1.1859 0
M  V30 11 H 0.3289 -1.4608 -1.2583 0
M  V30 12 H 1.6523 1.4139 -0.3960 0
M  V30 13 H -1.0203 1.8462 -0.4639 0
M  V30 14 H -0.4056 1.6240 -2.1865 0
M  V30 15 C -0.7195 -1.5542 0.4192 0
M  V30 16 B 0.3218 -0.4956 1.0000 0
M  V30 17 C 1.6677 -0.1522 0.2005 0
M  V30 18 H -0.4320 -1.7453 -0.6416 0
M  V30 19 H 0.3628 -0.2438 2.1642 0
M  V30 20 H 1.9060 0.9187 0.2665 0
M  V30 21 H 2.5012 -0.8016 0.5514 0
M  V30 22 C -0.9625 -0.1378 -1.5458 0
M  V30 23 B -1.0683 0.4942 -0.0858 0
M  V30 24 C -1.0672 -0.4460 1.2121 0
M  V30 25 H -0.6624 -1.2047 -1.4177 0
M  V30 26 H -1.5450 1.5726 0.0878 0
M  V30 27 H -0.4903 0.0077 2.0302 0
M  V30 28 H -2.1111 -0.6962 1.5081 0
M  V30 29 C 0.2863 1.4034 0.6452 0
M  V30 30 N 0.1872 1.5718 -0.7702 0
M  V30 31 C 0.6424 0.4583 -1.5524 0
M  V30 32 H 1.3322 1.3187 1.0080 0
M  V30 33 H -0.1385 2.2904 1.1405 0
M  V30 34 H 0.7481 2.4003 -1.0660 0
M  V30 35 H 1.7432 0.3544 -1.4845 0
M  V30 36 H 0.4159 0.7228 -2.6225 0
M  V30 37 C -0.0720 1.2968 0.8748 0
M  V30 38 N -1.2248 0.4815 1.0943 0
M  V30 39 C -1.6944 -0.2366 -0.0557 0
M  V30 40 H -0.2531 2.1386 0.1739 0
M  V30 41 H 0.2289 1.7536 1.8305 0
M  V30 42 H -2.0165 1.0740 1.4267 0
M  V30 43 H -2.1334 0.4570 -0.7997 0
M  V30 44 H -2.5399 -0.8825 0.3109 0
M  V30 45 C 0.3423 0.1844 -1.7254 0
M  V30 46 N -1.0480 0.4094 -1.4842 0
M  V30 47 C -1.6309 -0.4063 -0.4578 0
M  V30 48 H 0.5634 -0.8275 -2.1249 0
M  V30 49 H 0.6919 0.8977 -2.4880 0
M  V30 50 H -1.5898 0.2317 -2.3578 0
M  V30 51 H -1.6986 -1.4622 -0.7862 0
M  V30 52 H -2.6898 -0.0433 -0.3426 0
M  V30 53 C 0.3246 1.1449 1.0053 0
M  V30 54 N 1.3296 0.1297 1.0395 0
M  V30 55 C 0.8666 -1.1994 0.7607 0
M  V30 56 H -0.4453 1.0314 1.7971 0
M  V30 57 H 0.7997 2.1230 1.1783 0
M  V30 58 H 1.7728 0.1052 1.9836 0
M  V30 59 H 0.2351 -1.5773 1.5888 0
M  V30 60 H 1.7866 -1.8472 0.7447 0
M  V30 61 C 0.5702 -1.4789 0.5926 0
M  V30 62 N -0.6512 -1.7388 -0.1019 0
M  V30 63 C -1.5964 -0.6593 -0.1028 0
M  V30 64 H 0.4348 -1.3311 1.6846 0
M  V30 65 H 1.2357 -2.3492 0.4817 0
M  V30 66 H -1.1301 -2.5616 0.3247 0
M  V30 67 H -2.0215 -0.5085 0.9091 0
M  V30 68 H -2.4480 -0.9986 -0.7554 0
M  V30 69 C 0.7395 0.0333 -1.5986 0
M  V30 70 N 0.8496 -1.2890 -1.0682 0
M  V30 71 C 0.9295 -1.3699 0.3621 0
M  V30 72 H 1.6368 0.6600 -1.4128 0
M  V30 73 H 0.6309 -0.0292 -2.6925 0
M  V30 74 H 1.7056 -1.7497 -1.4468 0
M  V30 75 H 1.8993 -0.9754 0.7244 0
M  V30 76 H 0.9243 -2.4682 0.6074 0
M  V30 END ATOM
M  V30 BEGIN BOND
M  V30 1 1 1 2
M  V30 2 1 2 3
M  V30 3 1 1 4
M  V30 4 1 2 5
M  V30 5 1 3 6
M  V30 6 1 3 7
M  V30 7 1 8 9
M  V30 8 1 9 10
M  V30 9 1 8 11
M  V30 10 1 9 12
M  V30 11 1 10 13
M  V30 12 1 10 14
M  V30 13 1 15 16
M  V30 14 1 16 17
M  V30 15 1 15 18
M  V30 16 1 16 19
M  V30 17 1 17 20
M  V30 18 1 17 21
M  V30 19 1 22 23
M  V30 20 1 23 24
M  V30 21 1 22 25
M  V30 22 1 23 26
M  V30 23 1 24 27
M  V30 24 1 24 28
M  V30 25 1 29 30
M  V30 26 1 30 31
M  V30 27 1 29 32
M  V30 28 1 29 33
M  V30 29 1 30 34
M  V30 30 1 31 35
M  V30 31 1 31 36
M  V30 32 1 37 38
M  V30 33 1 38 39
M  V30 34 1 37 40
M  V30 35 1 37 41
M  V30 36 1 38 42
M  V30 37 1 39 43
M  V30 38 1 39 44
M  V30 39 1 45 46
M  V30 40 1 46 47
M  V30 41 1 45 48
M  V30 42 1 45 49
M  V30 43 1 46 50
M  V30 44 1 47 51
M  V30 45 1 47 52
M  V30 46 1 53 54
M  V30 47 1 54 55
M  V30 48 1 53 56
M  V30 49 1 53 57
M  V30 50 1 54 58
M  V30 51 1 55 59
M  V30 52 1 55 60
M  V30 53 1 61 62
M  V30 54 1 62 63
M  V30 55 1 61 64
M  V30 56 1 61 65
M  V30 57 1 62 66
M  V30 58 1 63 67
M  V30 59 1 63 68
M  V30 60 1 69 70
M  V30 61 1 70 71
M  V30 62 1 69 72
M  V30 63 1 69 73
M  V30 64 1 70 74
M  V30 65 1 71 75
M  V30 66 1 71 76
M  V30 67 1 1 29
M  V30 68 1 3 53
M  V30 69 1 1 37
M  V30 70 1 8 69
M  V30 71 1 8 45
M  V30 72 1 10 31
M  V30 73 1 15 61
M  V30 74 1 15 71
M  V30 75 1 17 55
M  V30 76 1 22 47
M  V30 77 1 22 63
M  V30 78 1 24 39
M  V30 END BOND
M  V30 END CTAB
M  END

$$$$
