
     RDKit          3D

  0  0  0  0  0  0  0  0  0  0999 V3000
M  V30 BEGIN CTAB
M  V30 COUNTS 76 78 0 0 0
M  V30 BEGIN ATOM
M  V30 1 C 3.1422 0.0288 -3.7836 0
M  V30 2 B 3.5733 -1.1519 -2.8027 0
M  V30 3 C 2.4661 -2.0243 -2.0402 0
M  V30 4 H 2.0480 -0.0853 -3.9692 0
M  V30 5 H 4.6510 -1.1703 -2.2939 0
M  V30 6 H 2.7573 -3.0831 -1.9949 0
M  V30 7 H 2.2584 -1.5912 -1.0357 0
M  V30 8 C -4.2875 0.5050 2.6041 0
M  V30 9 B -3.0990 0.9395 3.5742 0
M  V30 10 C -1.8277 1.7308 3.0031 0
M  V30 11 H -4.1397 1.0520 1.6431 0
M  V30 12 H -2.9046 0.3739 4.6052 0
M  V30 13 H -1.4913 2.5031 3.7090 0
M  V30 14 H -1.0194 1.0157 2.7293 0
M  V30 15 C 1.7907 3.2420 -0.3566 0
M  V30 16 B 3.0260 3.6079 -1.2959 0
M  V30 17 C 3.6978 2.4933 -2.2312 0
M  V30 18 H 1.4184 2.2423 -0.6830 0
M  V30 19 H 3.7301 4.5392 -1.0562 0
M  V30 20 H 3.9814 2.9125 -3.2068 0
M  V30 21 H 4.5523 2.0115 -1.7044 0
M  V30 22 C -4.1932 -2.2596 1.5200 0
M  V30 23 B -3.2107 -3.5007 1.3285 0
M  V30 24 C -1.6577 -3.2696 1.0071 0
M  V30 25 H -3.5538 -1.3512 1.6234 0
M  V30 26 H -3.6242 -4.5736 1.0148 0
M  V30 27 H -1.0299 -3.9989 1.5382 0
M  V30 28 H -1.4866 -3.2742 -0.0931 0
M  V30 29 C -5.1603 0.2054 2.4945 0
M  V30 30 N -5.6336 -1.1421 2.5369 0
M  V30 31 C -5.0646 -2.0218 1.5565 0
M  V30 32 H -5.4353 0.7412 1.5618 0
M  V30 33 H -5.6204 0.7712 3.3195 0
M  V30 34 H -6.6670 -1.1566 2.3947 0
M  V30 35 H -5.4231 -1.7626 0.5409 0
M  V30 36 H -5.4772 -3.0434 1.7856 0
M  V30 37 C -3.5664 -0.4450 4.3719 0
M  V30 38 N -3.1149 -1.7885 4.5530 0
M  V30 39 C -3.4744 -2.7014 3.5061 0
M  V30 40 H -4.6719 -0.3441 4.3899 0
M  V30 41 H -3.1891 0.1730 5.2015 0
M  V30 42 H -3.5057 -2.1743 5.4400 0
M  V30 43 H -4.5641 -2.9006 3.5156 0
M  V30 44 H -2.9734 -3.6755 3.7637 0
M  V30 45 C -1.0900 2.6768 1.9047 0
M  V30 46 N -0.5748 3.6394 0.9829 0
M  V30 47 C 0.7143 3.3316 0.4333 0
M  V30 48 H -0.4911 2.5917 2.8357 0
M  V30 49 H -2.0993 2.9869 2.2173 0
M  V30 50 H -0.4911 4.5669 1.4531 0
M  V30 51 H 1.5024 3.4193 1.2070 0
M  V30 52 H 0.9246 4.1370 -0.3239 0
M  V30 53 C 4.8731 -0.1364 -2.6810 0
M  V30 54 N 5.4038 0.6576 -1.6181 0
M  V30 55 C 4.8793 1.9901 -1.5289 0
M  V30 56 H 5.1305 0.2476 -3.6904 0
M  V30 57 H 5.3034 -1.1481 -2.6195 0
M  V30 58 H 6.4378 0.7447 -1.7266 0
M  V30 59 H 5.2326 2.6090 -2.3771 0
M  V30 60 H 5.3342 2.4368 -0.6016 0
M  V30 61 C 3.3262 0.6069 -4.4340 0
M  V30 62 N 3.9759 1.8731 -4.3055 0
M  V30 63 C 3.2827 2.8378 -3.5009 0
M  V30 64 H 2.3583 0.6599 -4.9752 0
M  V30 65 H 3.9694 -0.0659 -5.0223 0
M  V30 66 H 4.1040 2.3000 -5.2487 0
M  V30 67 H 2.3625 3.1858 -4.0103 0
M  V30 68 H 3.9649 3.7305 -3.4373 0
M  V30 69 C 0.8989 -2.6054 -1.9265 0
M  V30 70 N -0.3868 -3.2229 -1.8392 0
M  V30 71 C -0.9980 -3.1832 -0.5417 0
M  V30 72 H 1.6772 -3.1181 -1.3232 0
M  V30 73 H 1.2444 -2.6472 -2.9711 0
M  V30 74 H -0.3134 -4.2278 -2.1099 0
M  V30 75 H -0.4596 -3.8433 0.1666 0
M  V30 76 H -2.0228 -3.6295 -0.6722 0
M  V30 END ATOM
M  V30 BEGIN BOND
M  V30 1 1 1 2
M  V30 2 1 2 3
M  V30 3 1 1 4
M  V30 4 1 2 5
M  V30 5 1 3 6
M  V30 6 1 3 7
M  V30 7 1 8 9
M  V30 8 1 9 10
M  V30 9 1 8 11
M  V30 10 1 9 12
M  V30 11 1 10 13
M  V30 12 1 10 14
M  V30 13 1 15 16
M  V30 14 1 16 17
M  V30 15 1 15 18
M  V30 16 1 16 19
M  V30 17 1 17 20
M  V30 18 1 17 21
M  V30 19 1 22 23
M  V30 20 1 23 24
M  V30 21 1 22 25
M  V30 22 1 23 26
M  V30 23 1 24 27
M  V30 24 1 24 28
M  V30 25 1 29 30
M  V30 26 1 30 31
M  V30 27 1 29 32
M  V30 28 1 29 33
M  V30 29 1 30 34
M  V30 30 1 31 35
M  V30 31 1 31 36
M  V30 32 1 37 38
M  V30 33 1 38 39
M  V30 34 1 37 40
M  V30 35 1 37 41
M  V30 36 1 38 42
M  V30 37 1 39 43
M  V30 38 1 39 44
M  V30 39 1 45 46
M  V30 40 1 46 47
M  V30 41 1 45 48
M  V30 42 1 45 49
M  V30 43 1 46 50
M  V30 44 1 47 51
M  V30 45 1 47 52
M  V30 46 1 53 54
M  V30 47 1 54 55
M  V30 48 1 53 56
M  V30 49 1 53 57
M  V30 50 1 54 58
M  V30 51 1 55 59
M  V30 52 1 55 60
M  V30 53 1 61 62
M  V30 54 1 62 63
M  V30 55 1 61 64
M  V30 56 1 61 65
M  V30 57 1 62 66
M  V30 58 1 63 67
M  V30 59 1 63 68
M  V30 60 1 69 70
M  V30 61 1 70 71
M  V30 62 1 69 72
M  V30 63 1 69 73
M  V30 64 1 70 74
M  V30 65 1 71 75
M  V30 66 1 71 76
M  V30 67 1 1 61
M  V30 68 1 1 69
M  V30 69 1 3 53
M  V30 70 1 8 29
M  V30 71 1 10 37
M  V30 72 1 8 45
M  V30 73 1 15 47
M  V30 74 1 17 55
M  V30 75 1 15 63
M  V30 76 1 22 31
M  V30 77 1 22 39
M  V30 78 1 24 71
M  V30 END BOND
M  V30 END CTAB
M  END

$$$$
