
     RDKit          3D

  0  0  0  0  0  0  0  0  0  0999 V3000
M  V30 BEGIN CTAB
M  V30 COUNTS 76 78 0 0 0
M  V30 BEGIN ATOM
M  V30 1 C 4.0378 2.6783 -0.4784 0
M  V30 2 B 4.7371 2.0069 -1.7443 0
M  V30 3 C 4.1887 0.6244 -2.3415 0
M  V30 4 H 3.0660 2.1520 -0.3261 0
M  V30 5 H 5.8690 2.2508 -2.0269 0
M  V30 6 H 4.2297 0.6227 -3.4398 0
M  V30 7 H 4.7336 -0.2345 -1.8886 0
M  V30 8 C -2.8594 3.0801 2.7301 0
M  V30 9 B -2.2114 2.4718 4.0538 0
M  V30 10 C -0.6224 2.4795 4.2620 0
M  V30 11 H -2.0583 3.6574 2.2110 0
M  V30 12 H -2.7901 1.6619 4.7093 0
M  V30 13 H -0.3602 2.6978 5.3068 0
M  V30 14 H -0.1810 1.5245 3.8975 0
M  V30 15 C -3.2846 -1.2735 -3.4591 0
M  V30 16 B -2.4315 -0.0199 -3.9522 0
M  V30 17 C -2.9588 1.4733 -3.7059 0
M  V30 18 H -4.0725 -0.8816 -2.7734 0
M  V30 19 H -1.6357 -0.1220 -4.8335 0
M  V30 20 H -2.1320 2.1475 -3.4417 0
M  V30 21 H -3.5389 1.8279 -4.5876 0
M  V30 22 C -0.0519 -3.9866 2.8949 0
M  V30 23 B 0.5666 -5.1013 1.9372 0
M  V30 24 C 0.8711 -4.7765 0.3976 0
M  V30 25 H 0.0318 -3.0127 2.3573 0
M  V30 26 H 0.4464 -6.2617 2.1813 0
M  V30 27 H 1.8075 -5.2496 0.0701 0
M  V30 28 H 0.0005 -5.0602 -0.2359 0
M  V30 29 C 3.3593 4.1996 1.2686 0
M  V30 30 N 2.9547 4.4693 2.6123 0
M  V30 31 C 1.5370 4.5407 2.8218 0
M  V30 32 H 3.0925 5.0081 0.5561 0
M  V30 33 H 4.4566 4.1136 1.2371 0
M  V30 34 H 3.3541 5.3813 2.9236 0
M  V30 35 H 1.1149 5.4481 2.3468 0
M  V30 36 H 1.3976 4.6712 3.9308 0
M  V30 37 C 5.1199 -1.7531 -0.2863 0
M  V30 38 N 4.9036 -3.1654 -0.3040 0
M  V30 39 C 3.9714 -3.6540 0.6712 0
M  V30 40 H 5.5995 -1.3912 0.6473 0
M  V30 41 H 5.8057 -1.4871 -1.1057 0
M  V30 42 H 5.8060 -3.6616 -0.1370 0
M  V30 43 H 4.3931 -3.5737 1.6925 0
M  V30 44 H 3.8580 -4.7539 0.4623 0
M  V30 45 C -1.5470 -0.4762 5.3319 0
M  V30 46 N -0.7949 -1.6383 5.6864 0
M  V30 47 C -0.8680 -2.7235 4.7506 0
M  V30 48 H -2.6435 -0.6488 5.3114 0
M  V30 49 H -1.3742 0.3049 6.0885 0
M  V30 50 H -1.1273 -2.0059 6.6044 0
M  V30 51 H -1.8765 -3.1821 4.7587 0
M  V30 52 H -0.1611 -3.5092 5.1371 0
M  V30 53 C 2.2006 1.9293 -4.6147 0
M  V30 54 N 1.0306 2.3592 -5.3134 0
M  V30 55 C -0.0649 1.4327 -5.3005 0
M  V30 56 H 2.6854 1.0403 -5.0698 0
M  V30 57 H 2.9501 2.7355 -4.6444 0
M  V30 58 H 1.2647 2.5389 -6.3141 0
M  V30 59 H 0.1665 0.5420 -5.9172 0
M  V30 60 H -0.9170 1.9590 -5.8136 0
M  V30 61 C -3.1401 -3.5384 -2.7604 0
M  V30 62 N -3.2549 -4.5811 -1.7901 0
M  V30 63 C -2.0320 -4.9423 -1.1324 0
M  V30 64 H -2.5168 -3.8164 -3.6361 0
M  V30 65 H -4.1411 -3.3091 -3.1576 0
M  V30 66 H -3.6223 -5.4454 -2.2444 0
M  V30 67 H -1.3458 -5.4569 -1.8336 0
M  V30 68 H -2.3163 -5.7034 -0.3538 0
M  V30 69 C -4.4667 3.2503 1.0023 0
M  V30 70 N -5.4191 2.6570 0.1176 0
M  V30 71 C -4.9355 2.3774 -1.2040 0
M  V30 72 H -4.1447 4.2654 0.6886 0
M  V30 73 H -4.9277 3.3686 1.9953 0
M  V30 74 H -6.2427 3.2887 0.0125 0
M  V30 75 H -4.7641 3.3164 -1.7664 0
M  V30 76 H -5.7744 1.8430 -1.7303 0
M  V30 END ATOM
M  V30 BEGIN BOND
M  V30 1 1 1 2
M  V30 2 1 2 3
M  V30 3 1 1 4
M  V30 4 1 2 5
M  V30 5 1 3 6
M  V30 6 1 3 7
M  V30 7 1 8 9
M  V30 8 1 9 10
M  V30 9 1 8 11
M  V30 10 1 9 12
M  V30 11 1 10 13
M  V30 12 1 10 14
M  V30 13 1 15 16
M  V30 14 1 16 17
M  V30 15 1 15 18
M  V30 16 1 16 19
M  V30 17 1 17 20
M  V30 18 1 17 21
M  V30 19 1 22 23
M  V30 20 1 23 24
M  V30 21 1 22 25
M  V30 22 1 23 26
M  V30 23 1 24 27
M  V30 24 1 24 28
M  V30 25 1 29 30
M  V30 26 1 30 31
M  V30 27 1 29 32
M  V30 28 1 29 33
M  V30 29 1 30 34
M  V30 30 1 31 35
M  V30 31 1 31 36
M  V30 32 1 37 38
M  V30 33 1 38 39
M  V30 34 1 37 40
M  V30 35 1 37 41
M  V30 36 1 38 42
M  V30 37 1 39 43
M  V30 38 1 39 44
M  V30 39 1 45 46
M  V30 40 1 46 47
M  V30 41 1 45 48
M  V30 42 1 45 49
M  V30 43 1 46 50
M  V30 44 1 47 51
M  V30 45 1 47 52
M  V30 46 1 53 54
M  V30 47 1 54 55
M  V30 48 1 53 56
M  V30 49 1 53 57
M  V30 50 1 54 58
M  V30 51 1 55 59
M  V30 52 1 55 60
M  V30 53 1 61 62
M  V30 54 1 62 63
M  V30 55 1 61 64
M  V30 56 1 61 65
M  V30 57 1 62 66
M  V30 58 1 63 67
M  V30 59 1 63 68
M  V30 60 1 69 70
M  V30 61 1 70 71
M  V30 62 1 69 72
M  V30 63 1 69 73
M  V30 64 1 70 74
M  V30 65 1 71 75
M  V30 66 1 71 76
M  V30 67 1 1 29
M  V30 68 1 1 53
M  V30 69 1 3 37
M  V30 70 1 8 69
M  V30 71 1 10 45
M  V30 72 1 8 31
M  V30 73 1 15 61
M  V30 74 1 15 71
M  V30 75 1 17 55
M  V30 76 1 22 47
M  V30 77 1 24 63
M  V30 78 1 22 39
M  V30 END BOND
M  V30 END CTAB
M  END

$$$$
