
     RDKit          3D

  0  0  0  0  0  0  0  0  0  0999 V3000
M  V30 BEGIN CTAB
M  V30 COUNTS 76 78 0 0 0
M  V30 BEGIN ATOM
M  V30 1 C 1.5336 0.5925 0.7914 0
M  V30 2 B 0.1664 1.4099 0.8615 0
M  V30 3 C -1.2427 0.6520 0.7692 0
M  V30 4 H 1.2752 -0.4855 0.9169 0
M  V30 5 H 0.1228 2.5668 0.5784 0
M  V30 6 H -1.9791 1.0992 1.4516 0
M  V30 7 H -1.5960 0.6218 -0.2863 0
M  V30 8 C 1.5367 0.1425 0.0210 0
M  V30 9 B 0.1695 0.9598 0.0911 0
M  V30 10 C -1.2396 0.2019 -0.0012 0
M  V30 11 H 1.2784 -0.9355 0.1465 0
M  V30 12 H 0.1259 2.1167 -0.1920 0
M  V30 13 H -1.9760 0.6491 0.6812 0
M  V30 14 H -1.5929 0.1717 -1.0567 0
M  V30 15 C 2.0689 0.3826 -0.6516 0
M  V30 16 B 0.7017 1.2000 -0.5815 0
M  V30 17 C -0.7075 0.4421 -0.6738 0
M  V30 18 H 1.8105 -0.6954 -0.5261 0
M  V30 19 H 0.6580 2.3569 -0.8646 0
M  V30 20 H -1.4439 0.8893 0.0086 0
M  V30 21 H -1.0608 0.4119 -1.7293 0
M  V30 22 C 0.9926 -0.5498 -0.1047 0
M  V30 23 B -0.3746 0.2676 -0.0346 0
M  V30 24 C -1.7837 -0.4903 -0.1269 0
M  V30 25 H 0.7342 -1.6278 0.0207 0
M  V30 26 H -0.4182 1.4245 -0.3177 0
M  V30 27 H -2.5201 -0.0431 0.5555 0
M  V30 28 H -2.1370 -0.5205 -1.1824 0
M  V30 29 C 1.6355 0.3042 -0.2376 0
M  V30 30 N 0.4804 -0.2634 -0.8584 0
M  V30 31 C -0.7744 0.2935 -0.4412 0
M  V30 32 H 1.6871 0.1162 0.8554 0
M  V30 33 H 2.5363 -0.1579 -0.6705 0
M  V30 34 H 0.4404 -1.2864 -0.6582 0
M  V30 35 H -1.0030 0.0074 0.6044 0
M  V30 36 H -1.5568 -0.2006 -1.0816 0
M  V30 37 C 1.0694 -0.1866 0.0495 0
M  V30 38 N -0.0857 -0.7541 -0.5712 0
M  V30 39 C -1.3405 -0.1973 -0.1540 0
M  V30 40 H 1.1210 -0.3745 1.1425 0
M  V30 41 H 1.9703 -0.6487 -0.3834 0
M  V30 42 H -0.1257 -1.7772 -0.3710 0
M  V30 43 H -1.5691 -0.4833 0.8915 0
M  V30 44 H -2.1229 -0.6914 -0.7945 0
M  V30 45 C 0.6492 -0.7150 -0.0548 0
M  V30 46 N -0.5059 -1.2826 -0.6756 0
M  V30 47 C -1.7607 -0.7257 -0.2584 0
M  V30 48 H 0.7008 -0.9030 1.0381 0
M  V30 49 H 1.5500 -1.1771 -0.4877 0
M  V30 50 H -0.5459 -2.3056 -0.4754 0
M  V30 51 H -1.9893 -1.0118 0.7872 0
M  V30 52 H -2.5431 -1.2198 -0.8989 0
M  V30 53 C 1.3455 0.7612 1.1038 0
M  V30 54 N 0.1904 0.1936 0.4831 0
M  V30 55 C -1.0644 0.7505 0.9003 0
M  V30 56 H 1.3971 0.5732 2.1968 0
M  V30 57 H 2.2463 0.2991 0.6709 0
M  V30 58 H 0.1504 -0.8294 0.6833 0
M  V30 59 H -1.2930 0.4644 1.9458 0
M  V30 60 H -1.8468 0.2564 0.2598 0
M  V30 61 C 1.3542 0.4130 0.5189 0
M  V30 62 N 0.1991 -0.1545 -0.1018 0
M  V30 63 C -1.0557 0.4023 0.3154 0
M  V30 64 H 1.4058 0.2251 1.6119 0
M  V30 65 H 2.2551 -0.0491 0.0860 0
M  V30 66 H 0.1591 -1.1776 0.0984 0
M  V30 67 H -1.2843 0.1163 1.3609 0
M  V30 68 H -1.8381 -0.0918 -0.3251 0
M  V30 69 C 2.0373 0.4872 -0.7603 0
M  V30 70 N 0.8822 -0.0803 -1.3810 0
M  V30 71 C -0.3726 0.4765 -0.9638 0
M  V30 72 H 2.0889 0.2993 0.3327 0
M  V30 73 H 2.9382 0.0251 -1.1932 0
M  V30 74 H 0.8422 -1.1034 -1.1808 0
M  V30 75 H -0.6012 0.1904 0.0817 0
M  V30 76 H -1.1549 -0.0176 -1.6043 0
M  V30 END ATOM
M  V30 BEGIN BOND
M  V30 1 1 1 2
M  V30 2 1 2 3
M  V30 3 1 1 4
M  V30 4 1 2 5
M  V30 5 1 3 6
M  V30 6 1 3 7
M  V30 7 1 8 9
M  V30 8 1 9 10
M  V30 9 1 8 11
M  V30 10 1 9 12
M  V30 11 1 10 13
M  V30 12 1 10 14
M  V30 13 1 15 16
M  V30 14 1 16 17
M  V30 15 1 15 18
M  V30 16 1 16 19
M  V30 17 1 17 20
M  V30 18 1 17 21
M  V30 19 1 22 23
M  V30 20 1 23 24
M  V30 21 1 22 25
M  V30 22 1 23 26
M  V30 23 1 24 27
M  V30 24 1 24 28
M  V30 25 1 29 30
M  V30 26 1 30 31
M  V30 27 1 29 32
M  V30 28 1 29 33
M  V30 29 1 30 34
M  V30 30 1 31 35
M  V30 31 1 31 36
M  V30 32 1 37 38
M  V30 33 1 38 39
M  V30 34 1 37 40
M  V30 35 1 37 41
M  V30 36 1 38 42
M  V30 37 1 39 43
M  V30 38 1 39 44
M  V30 39 1 45 46
M  V30 40 1 46 47
M  V30 41 1 45 48
M  V30 42 1 45 49
M  V30 43 1 46 50
M  V30 44 1 47 51
M  V30 45 1 47 52
M  V30 46 1 53 54
M  V30 47 1 54 55
M  V30 48 1 53 56
M  V30 49 1 53 57
M  V30 50 1 54 58
M  V30 51 1 55 59
M  V30 52 1 55 60
M  V30 53 1 61 62
M  V30 54 1 62 63
M  V30 55 1 61 64
M  V30 56 1 61 65
M  V30 57 1 62 66
M  V30 58 1 63 67
M  V30 59 1 63 68
M  V30 60 1 69 70
M  V30 61 1 70 71
M  V30 62 1 69 72
M  V30 63 1 69 73
M  V30 64 1 70 74
M  V30 65 1 71 75
M  V30 66 1 71 76
M  V30 67 1 1 53
M  V30 68 1 1 61
M  V30 69 1 3 55
M  V30 70 1 8 37
M  V30 71 1 8 63
M  V30 72 1 10 29
M  V30 73 1 15 69
M  V30 74 1 15 71
M  V30 75 1 17 31
M  V30 76 1 22 45
M  V30 77 1 22 39
M  V30 78 1 24 47
M  V30 END BOND
M  V30 END CTAB
M  END

$$$$
