
     RDKit          3D

  0  0  0  0  0  0  0  0  0  0999 V3000
M  V30 BEGIN CTAB
M  V30 COUNTS 76 78 0 0 0
M  V30 BEGIN ATOM
M  V30 1 C 1.5448 0.2476 -0.0392 0
M  V30 2 B 0.1775 1.0650 0.0309 0
M  V30 3 C -1.2316 0.3071 -0.0615 0
M  V30 4 H 1.2864 -0.8304 0.0862 0
M  V30 5 H 0.1339 2.2219 -0.2522 0
M  V30 6 H -1.9680 0.7543 0.6209 0
M  V30 7 H -1.5849 0.2769 -1.1169 0
M  V30 8 C 1.5332 -0.4106 0.0110 0
M  V30 9 B 0.1660 0.4067 0.0810 0
M  V30 10 C -1.2431 -0.3511 -0.0113 0
M  V30 11 H 1.2748 -1.4886 0.1364 0
M  V30 12 H 0.1223 1.5637 -0.2020 0
M  V30 13 H -1.9795 0.0961 0.6711 0
M  V30 14 H -1.5964 -0.3814 -1.0667 0
M  V30 15 C 1.4272 -0.1807 0.4493 0
M  V30 16 B 0.0600 0.6366 0.5194 0
M  V30 17 C -1.3491 -0.1213 0.4270 0
M  V30 18 H 1.1689 -1.2587 0.5747 0
M  V30 19 H 0.0164 1.7935 0.2363 0
M  V30 20 H -2.0855 0.3259 1.1094 0
M  V30 21 H -1.7024 -0.1515 -0.6284 0
M  V30 22 C 1.6162 0.8507 -0.3381 0
M  V30 23 B 0.2490 1.6680 -0.2681 0
M  V30 24 C -1.1601 0.9101 -0.3604 0
M  V30 25 H 1.3579 -0.2273 -0.2127 0
M  V30 26 H 0.2054 2.8249 -0.5511 0
M  V30 27 H -1.8965 1.3573 0.3220 0
M  V30 28 H -1.5134 0.8799 -1.4159 0
M  V30 29 C 1.3981 0.5912 -0.1015 0
M  V30 30 N 0.2430 0.0236 -0.7223 0
M  V30 31 C -1.0118 0.5805 -0.3051 0
M  V30 32 H 1.4497 0.4033 0.9915 0
M  V30 33 H 2.2990 0.1291 -0.5344 0
M  V30 34 H 0.2030 -0.9994 -0.5220 0
M  V30 35 H -1.2404 0.2944 0.7405 0
M  V30 36 H -1.7942 0.0864 -0.9455 0
M  V30 37 C 1.4990 -0.3973 0.4413 0
M  V30 38 N 0.3439 -0.9648 -0.1795 0
M  V30 39 C -0.9109 -0.4080 0.2377 0
M  V30 40 H 1.5506 -0.5852 1.5343 0
M  V30 41 H 2.3999 -0.8594 0.0084 0
M  V30 42 H 0.3039 -1.9879 0.0208 0
M  V30 43 H -1.1395 -0.6940 1.2833 0
M  V30 44 H -1.6933 -0.9021 -0.4027 0
M  V30 45 C 1.4674 1.1765 -0.3911 0
M  V30 46 N 0.3123 0.6089 -1.0119 0
M  V30 47 C -0.9426 1.1657 -0.5947 0
M  V30 48 H 1.5190 0.9885 0.7019 0
M  V30 49 H 2.3682 0.7143 -0.8240 0
M  V30 50 H 0.2722 -0.4141 -0.8116 0
M  V30 51 H -1.1711 0.8797 0.4509 0
M  V30 52 H -1.7249 0.6716 -1.2351 0
M  V30 53 C 1.3974 -0.0598 -0.0959 0
M  V30 54 N 0.2423 -0.6273 -0.7167 0
M  V30 55 C -1.0126 -0.0705 -0.2995 0
M  V30 56 H 1.4490 -0.2477 0.9971 0
M  V30 57 H 2.2982 -0.5219 -0.5288 0
M  V30 58 H 0.2022 -1.6504 -0.5165 0
M  V30 59 H -1.2411 -0.3565 0.7461 0
M  V30 60 H -1.7949 -0.5646 -0.9399 0
M  V30 61 C 1.2758 0.2042 0.4075 0
M  V30 62 N 0.1207 -0.3633 -0.2133 0
M  V30 63 C -1.1341 0.1935 0.2039 0
M  V30 64 H 1.3274 0.0163 1.5005 0
M  V30 65 H 2.1767 -0.2579 -0.0254 0
M  V30 66 H 0.0807 -1.3864 -0.0130 0
M  V30 67 H -1.3626 -0.0925 1.2495 0
M  V30 68 H -1.9164 -0.3006 -0.4365 0
M  V30 69 C 1.0625 -0.3976 0.3359 0
M  V30 70 N -0.0926 -0.9651 -0.2849 0
M  V30 71 C -1.3475 -0.4083 0.1324 0
M  V30 72 H 1.1141 -0.5855 1.4289 0
M  V30 73 H 1.9633 -0.8597 -0.0970 0
M  V30 74 H -0.1327 -1.9882 -0.0846 0
M  V30 75 H -1.5760 -0.6943 1.1779 0
M  V30 76 H -2.1298 -0.9024 -0.5081 0
M  V30 END ATOM
M  V30 BEGIN BOND
M  V30 1 1 1 2
M  V30 2 1 2 3
M  V30 3 1 1 4
M  V30 4 1 2 5
M  V30 5 1 3 6
M  V30 6 1 3 7
M  V30 7 1 8 9
M  V30 8 1 9 10
M  V30 9 1 8 11
M  V30 10 1 9 12
M  V30 11 1 10 13
M  V30 12 1 10 14
M  V30 13 1 15 16
M  V30 14 1 16 17
M  V30 15 1 15 18
M  V30 16 1 16 19
M  V30 17 1 17 20
M  V30 18 1 17 21
M  V30 19 1 22 23
M  V30 20 1 23 24
M  V30 21 1 22 25
M  V30 22 1 23 26
M  V30 23 1 24 27
M  V30 24 1 24 28
M  V30 25 1 29 30
M  V30 26 1 30 31
M  V30 27 1 29 32
M  V30 28 1 29 33
M  V30 29 1 30 34
M  V30 30 1 31 35
M  V30 31 1 31 36
M  V30 32 1 37 38
M  V30 33 1 38 39
M  V30 34 1 37 40
M  V30 35 1 37 41
M  V30 36 1 38 42
M  V30 37 1 39 43
M  V30 38 1 39 44
M  V30 39 1 45 46
M  V30 40 1 46 47
M  V30 41 1 45 48
M  V30 42 1 45 49
M  V30 43 1 46 50
M  V30 44 1 47 51
M  V30 45 1 47 52
M  V30 46 1 53 54
M  V30 47 1 54 55
M  V30 48 1 53 56
M  V30 49 1 53 57
M  V30 50 1 54 58
M  V30 51 1 55 59
M  V30 52 1 55 60
M  V30 53 1 61 62
M  V30 54 1 62 63
M  V30 55 1 61 64
M  V30 56 1 61 65
M  V30 57 1 62 66
M  V30 58 1 63 67
M  V30 59 1 63 68
M  V30 60 1 69 70
M  V30 61 1 70 71
M  V30 62 1 69 72
M  V30 63 1 69 73
M  V30 64 1 70 74
M  V30 65 1 71 75
M  V30 66 1 71 76
M  V30 67 1 1 29
M  V30 68 1 1 53
M  V30 69 1 3 61
M  V30 70 1 8 69
M  V30 71 1 8 55
M  V30 72 1 10 37
M  V30 73 1 15 39
M  V30 74 1 15 71
M  V30 75 1 17 63
M  V30 76 1 22 45
M  V30 77 1 22 47
M  V30 78 1 24 31
M  V30 END BOND
M  V30 END CTAB
M  END

$$$$
