
     RDKit          3D

  0  0  0  0  0  0  0  0  0  0999 V3000
M  V30 BEGIN CTAB
M  V30 COUNTS 76 78 0 0 0
M  V30 BEGIN ATOM
M  V30 1 C 0.9770 0.0855 -0.4532 0
M  V30 2 B -0.3902 0.9029 -0.3831 0
M  V30 3 C -1.7993 0.1450 -0.4754 0
M  V30 4 H 0.7186 -0.9925 -0.3278 0
M  V30 5 H -0.4339 2.0598 -0.6662 0
M  V30 6 H -2.5357 0.5922 0.2070 0
M  V30 7 H -2.1526 0.1148 -1.5309 0
M  V30 8 C 1.5321 0.1421 0.0131 0
M  V30 9 B 0.1649 0.9595 0.0832 0
M  V30 10 C -1.2442 0.2016 -0.0091 0
M  V30 11 H 1.2738 -0.9359 0.1386 0
M  V30 12 H 0.1213 2.1164 -0.1999 0
M  V30 13 H -1.9806 0.6488 0.6733 0
M  V30 14 H -1.5975 0.1714 -1.0646 0
M  V30 15 C 2.2054 -0.0314 -0.2001 0
M  V30 16 B 0.8382 0.7859 -0.1300 0
M  V30 17 C -0.5709 0.0281 -0.2224 0
M  V30 18 H 1.9470 -1.1094 -0.0747 0
M  V30 19 H 0.7945 1.9429 -0.4131 0
M  V30 20 H -1.3073 0.4753 0.4600 0
M  V30 21 H -0.9242 -0.0021 -1.2778 0
M  V30 22 C 1.4141 0.3722 0.6928 0
M  V30 23 B 0.0469 1.1896 0.7629 0
M  V30 24 C -1.3622 0.4317 0.6706 0
M  V30 25 H 1.1558 -0.7058 0.8183 0
M  V30 26 H 0.0033 2.3465 0.4798 0
M  V30 27 H -2.0986 0.8789 1.3530 0
M  V30 28 H -1.7155 0.4015 -0.3849 0
M  V30 29 C 1.6966 0.0875 -0.0064 0
M  V30 30 N 0.5415 -0.4801 -0.6272 0
M  V30 31 C -0.7133 0.0768 -0.2100 0
M  V30 32 H 1.7482 -0.1004 1.0865 0
M  V30 33 H 2.5975 -0.3746 -0.4393 0
M  V30 34 H 0.5015 -1.5031 -0.4270 0
M  V30 35 H -0.9419 -0.2093 0.8356 0
M  V30 36 H -1.4956 -0.4173 -0.8505 0
M  V30 37 C 1.2880 0.2960 0.4549 0
M  V30 38 N 0.1329 -0.2716 -0.1659 0
M  V30 39 C -1.1220 0.2853 0.2513 0
M  V30 40 H 1.3396 0.1080 1.5478 0
M  V30 41 H 2.1888 -0.1661 0.0220 0
M  V30 42 H 0.0928 -1.2946 0.0343 0
M  V30 43 H -1.3505 -0.0008 1.2969 0
M  V30 44 H -1.9043 -0.2088 -0.3892 0
M  V30 45 C 1.1754 0.5158 1.1038 0
M  V30 46 N 0.0203 -0.0517 0.4830 0
M  V30 47 C -1.2345 0.5051 0.9002 0
M  V30 48 H 1.2270 0.3279 2.1968 0
M  V30 49 H 2.0763 0.0537 0.6709 0
M  V30 50 H -0.0197 -1.0748 0.6833 0
M  V30 51 H -1.4630 0.2190 1.9458 0
M  V30 52 H -2.0168 0.0110 0.2598 0
M  V30 53 C 0.5322 0.0944 -0.5824 0
M  V30 54 N -0.6229 -0.4731 -1.2032 0
M  V30 55 C -1.8777 0.0837 -0.7860 0
M  V30 56 H 0.5838 -0.0935 0.5106 0
M  V30 57 H 1.4331 -0.3677 -1.0153 0
M  V30 58 H -0.6629 -1.4962 -1.0029 0
M  V30 59 H -2.1063 -0.2023 0.2596 0
M  V30 60 H -2.6601 -0.4104 -1.4264 0
M  V30 61 C 1.0622 0.1479 -0.1370 0
M  V30 62 N -0.0929 -0.4196 -0.7578 0
M  V30 63 C -1.3477 0.1372 -0.3406 0
M  V30 64 H 1.1138 -0.0400 0.9559 0
M  V30 65 H 1.9631 -0.3142 -0.5699 0
M  V30 66 H -0.1329 -1.4427 -0.5576 0
M  V30 67 H -1.5763 -0.1488 0.7050 0
M  V30 68 H -2.1301 -0.3569 -0.9811 0
M  V30 69 C 2.3394 -0.0782 -0.2101 0
M  V30 70 N 1.1843 -0.6457 -0.8309 0
M  V30 71 C -0.0705 -0.0889 -0.4137 0
M  V30 72 H 2.3910 -0.2661 0.8829 0
M  V30 73 H 3.2403 -0.5403 -0.6430 0
M  V30 74 H 1.1443 -1.6688 -0.6307 0
M  V30 75 H -0.2991 -0.3750 0.6319 0
M  V30 76 H -0.8529 -0.5830 -1.0541 0
M  V30 END ATOM
M  V30 BEGIN BOND
M  V30 1 1 1 2
M  V30 2 1 2 3
M  V30 3 1 1 4
M  V30 4 1 2 5
M  V30 5 1 3 6
M  V30 6 1 3 7
M  V30 7 1 8 9
M  V30 8 1 9 10
M  V30 9 1 8 11
M  V30 10 1 9 12
M  V30 11 1 10 13
M  V30 12 1 10 14
M  V30 13 1 15 16
M  V30 14 1 16 17
M  V30 15 1 15 18
M  V30 16 1 16 19
M  V30 17 1 17 20
M  V30 18 1 17 21
M  V30 19 1 22 23
M  V30 20 1 23 24
M  V30 21 1 22 25
M  V30 22 1 23 26
M  V30 23 1 24 27
M  V30 24 1 24 28
M  V30 25 1 29 30
M  V30 26 1 30 31
M  V30 27 1 29 32
M  V30 28 1 29 33
M  V30 29 1 30 34
M  V30 30 1 31 35
M  V30 31 1 31 36
M  V30 32 1 37 38
M  V30 33 1 38 39
M  V30 34 1 37 40
M  V30 35 1 37 41
M  V30 36 1 38 42
M  V30 37 1 39 43
M  V30 38 1 39 44
M  V30 39 1 45 46
M  V30 40 1 46 47
M  V30 41 1 45 48
M  V30 42 1 45 49
M  V30 43 1 46 50
M  V30 44 1 47 51
M  V30 45 1 47 52
M  V30 46 1 53 54
M  V30 47 1 54 55
M  V30 48 1 53 56
M  V30 49 1 53 57
M  V30 50 1 54 58
M  V30 51 1 55 59
M  V30 52 1 55 60
M  V30 53 1 61 62
M  V30 54 1 62 63
M  V30 55 1 61 64
M  V30 56 1 61 65
M  V30 57 1 62 66
M  V30 58 1 63 67
M  V30 59 1 63 68
M  V30 60 1 69 70
M  V30 61 1 70 71
M  V30 62 1 69 72
M  V30 63 1 69 73
M  V30 64 1 70 74
M  V30 65 1 71 75
M  V30 66 1 71 76
M  V30 67 1 1 53
M  V30 68 1 1 61
M  V30 69 1 3 55
M  V30 70 1 8 37
M  V30 71 1 8 63
M  V30 72 1 10 29
M  V30 73 1 15 69
M  V30 74 1 15 71
M  V30 75 1 17 31
M  V30 76 1 22 45
M  V30 77 1 22 39
M  V30 78 1 24 47
M  V30 END BOND
M  V30 END CTAB
M  END

$$$$
