
     RDKit          3D

  0  0  0  0  0  0  0  0  0  0999 V3000
M  V30 BEGIN CTAB
M  V30 COUNTS 76 78 0 0 0
M  V30 BEGIN ATOM
M  V30 1 C 1.1415 -0.3828 4.8526 0
M  V30 2 B -0.3899 0.0510 4.7582 0
M  V30 3 C -0.8075 1.5954 4.8526 0
M  V30 4 H 1.7502 0.5458 4.7436 0
M  V30 5 H -1.2660 -0.7130 5.0211 0
M  V30 6 H -1.6260 1.8282 4.1571 0
M  V30 7 H -1.0467 1.8666 5.9057 0
M  V30 8 C 3.0859 -1.5676 -2.2634 0
M  V30 9 B 2.7706 -3.0863 -1.8940 0
M  V30 10 C 1.4373 -3.4709 -1.0921 0
M  V30 11 H 2.1503 -0.9875 -2.0823 0
M  V30 12 H 3.6402 -3.8981 -1.8217 0
M  V30 13 H 1.0039 -4.4077 -1.4694 0
M  V30 14 H 1.6403 -3.4999 0.0022 0
M  V30 15 C 1.1986 4.0250 -2.3391 0
M  V30 16 B 2.4224 5.0169 -2.0928 0
M  V30 17 C 3.5557 4.6626 -1.0164 0
M  V30 18 H 1.4560 3.0605 -1.8411 0
M  V30 19 H 2.3422 6.1756 -2.3603 0
M  V30 20 H 4.5514 4.9556 -1.3778 0
M  V30 21 H 3.3053 5.1141 -0.0299 0
M  V30 22 C -4.3773 -3.6772 -2.4274 0
M  V30 23 B -5.3533 -2.5162 -1.9355 0
M  V30 24 C -4.8316 -1.3841 -0.9282 0
M  V30 25 H -3.3419 -3.3745 -2.1427 0
M  V30 26 H -6.5367 -2.6571 -1.9479 0
M  V30 27 H -5.2471 -0.4003 -1.1876 0
M  V30 28 H -5.0436 -1.6773 0.1248 0
M  V30 29 C 1.8686 -1.1336 4.0159 0
M  V30 30 N 3.0653 -1.7431 3.5281 0
M  V30 31 C 2.8880 -2.6423 2.4241 0
M  V30 32 H 1.1537 -1.8573 4.4606 0
M  V30 33 H 2.1299 -0.4281 4.8199 0
M  V30 34 H 3.5200 -2.2873 4.2932 0
M  V30 35 H 2.3647 -3.5635 2.7479 0
M  V30 36 H 3.9235 -2.9589 2.1176 0
M  V30 37 C -3.8823 -1.6151 4.2275 0
M  V30 38 N -4.6733 -2.5771 3.5269 0
M  V30 39 C -5.0932 -2.1837 2.2126 0
M  V30 40 H -4.4316 -0.6800 4.4648 0
M  V30 41 H -3.5741 -2.0428 5.1942 0
M  V30 42 H -5.5378 -2.7859 4.0723 0
M  V30 43 H -5.8461 -1.3727 2.2669 0
M  V30 44 H -5.6229 -3.0774 1.7800 0
M  V30 45 C -1.2839 -5.4919 -3.4284 0
M  V30 46 N -2.5240 -5.1568 -4.0543 0
M  V30 47 C -3.5024 -4.5580 -3.1923 0
M  V30 48 H -1.3789 -6.2823 -2.6546 0
M  V30 49 H -0.5962 -5.8905 -4.1904 0
M  V30 50 H -2.9584 -6.0157 -4.4564 0
M  V30 51 H -3.8900 -5.2977 -2.4645 0
M  V30 52 H -4.3689 -4.2845 -3.8562 0
M  V30 53 C 1.5325 4.9677 3.9537 0
M  V30 54 N 2.4285 5.7356 3.1479 0
M  V30 55 C 3.4551 4.9824 2.4864 0
M  V30 56 H 2.0233 4.4891 4.8269 0
M  V30 57 H 0.7605 5.6365 4.3649 0
M  V30 58 H 2.9082 6.4497 3.7381 0
M  V30 59 H 4.1934 4.5981 3.2175 0
M  V30 60 H 4.0065 5.7193 1.8389 0
M  V30 61 C -1.3550 2.5839 -3.5447 0
M  V30 62 N -2.7613 2.4322 -3.3418 0
M  V30 63 C -3.2002 1.0923 -3.0761 0
M  V30 64 H -0.9815 2.0674 -4.4536 0
M  V30 65 H -1.1281 3.6523 -3.6846 0
M  V30 66 H -3.2760 2.7582 -4.1886 0
M  V30 67 H -3.1043 0.4607 -3.9811 0
M  V30 68 H -4.3020 1.1682 -2.8596 0
M  V30 69 C 4.2010 1.1770 -4.2377 0
M  V30 70 N 5.3007 1.5892 -3.4237 0
M  V30 71 C 4.9759 2.5220 -2.3830 0
M  V30 72 H 3.7623 2.0014 -4.8381 0
M  V30 73 H 4.5546 0.4260 -4.9612 0
M  V30 74 H 6.0294 2.0396 -4.0190 0
M  V30 75 H 4.7178 3.5116 -2.8089 0
M  V30 76 H 5.9249 2.6689 -1.7964 0
M  V30 END ATOM
M  V30 BEGIN BOND
M  V30 1 1 1 2
M  V30 2 1 2 3
M  V30 3 1 1 4
M  V30 4 1 2 5
M  V30 5 1 3 6
M  V30 6 1 3 7
M  V30 7 1 8 9
M  V30 8 1 9 10
M  V30 9 1 8 11
M  V30 10 1 9 12
M  V30 11 1 10 13
M  V30 12 1 10 14
M  V30 13 1 15 16
M  V30 14 1 16 17
M  V30 15 1 15 18
M  V30 16 1 16 19
M  V30 17 1 17 20
M  V30 18 1 17 21
M  V30 19 1 22 23
M  V30 20 1 23 24
M  V30 21 1 22 25
M  V30 22 1 23 26
M  V30 23 1 24 27
M  V30 24 1 24 28
M  V30 25 1 29 30
M  V30 26 1 30 31
M  V30 27 1 29 32
M  V30 28 1 29 33
M  V30 29 1 30 34
M  V30 30 1 31 35
M  V30 31 1 31 36
M  V30 32 1 37 38
M  V30 33 1 38 39
M  V30 34 1 37 40
M  V30 35 1 37 41
M  V30 36 1 38 42
M  V30 37 1 39 43
M  V30 38 1 39 44
M  V30 39 1 45 46
M  V30 40 1 46 47
M  V30 41 1 45 48
M  V30 42 1 45 49
M  V30 43 1 46 50
M  V30 44 1 47 51
M  V30 45 1 47 52
M  V30 46 1 53 54
M  V30 47 1 54 55
M  V30 48 1 53 56
M  V30 49 1 53 57
M  V30 50 1 54 58
M  V30 51 1 55 59
M  V30 52 1 55 60
M  V30 53 1 61 62
M  V30 54 1 62 63
M  V30 55 1 61 64
M  V30 56 1 61 65
M  V30 57 1 62 66
M  V30 58 1 63 67
M  V30 59 1 63 68
M  V30 60 1 69 70
M  V30 61 1 70 71
M  V30 62 1 69 72
M  V30 63 1 69 73
M  V30 64 1 70 74
M  V30 65 1 71 75
M  V30 66 1 71 76
M  V30 67 1 1 29
M  V30 68 1 1 53
M  V30 69 1 3 37
M  V30 70 1 8 69
M  V30 71 1 8 45
M  V30 72 1 10 31
M  V30 73 1 15 61
M  V30 74 1 15 71
M  V30 75 1 17 55
M  V30 76 1 22 47
M  V30 77 1 22 63
M  V30 78 1 24 39
M  V30 END BOND
M  V30 END CTAB
M  END

$$$$
