
     RDKit          3D

  0  0  0  0  0  0  0  0  0  0999 V3000
M  V30 BEGIN CTAB
M  V30 COUNTS 76 78 0 0 0
M  V30 BEGIN ATOM
M  V30 1 C 0.8683 -0.5087 0.0497 0
M  V30 2 B -0.4990 0.3086 0.1197 0
M  V30 3 C -1.9081 -0.4493 0.0274 0
M  V30 4 H 0.6099 -1.5867 0.1751 0
M  V30 5 H -0.5426 1.4656 -0.1633 0
M  V30 6 H -2.6445 -0.0020 0.7098 0
M  V30 7 H -2.2614 -0.4795 -1.0280 0
M  V30 8 C 1.8170 0.2788 -0.0402 0
M  V30 9 B 0.4498 1.0961 0.0299 0
M  V30 10 C -0.9594 0.3382 -0.0624 0
M  V30 11 H 1.5586 -0.7992 0.0852 0
M  V30 12 H 0.4061 2.2530 -0.2532 0
M  V30 13 H -1.6958 0.7854 0.6200 0
M  V30 14 H -1.3127 0.3080 -1.1179 0
M  V30 15 C 2.0031 0.9421 0.0764 0
M  V30 16 B 0.6359 1.7595 0.1465 0
M  V30 17 C -0.7732 1.0016 0.0541 0
M  V30 18 H 1.7447 -0.1359 0.2018 0
M  V30 19 H 0.5923 2.9164 -0.1366 0
M  V30 20 H -1.5096 1.4488 0.7365 0
M  V30 21 H -1.1265 0.9714 -1.0013 0
M  V30 22 C 1.4688 -0.1639 -0.0471 0
M  V30 23 B 0.1015 0.6535 0.0229 0
M  V30 24 C -1.3076 -0.1044 -0.0694 0
M  V30 25 H 1.2104 -1.2419 0.0783 0
M  V30 26 H 0.0579 1.8104 -0.2601 0
M  V30 27 H -2.0440 0.3428 0.6130 0
M  V30 28 H -1.6609 -0.1346 -1.1248 0
M  V30 29 C 1.4637 0.0911 -0.0690 0
M  V30 30 N 0.3086 -0.4765 -0.6898 0
M  V30 31 C -0.9462 0.0803 -0.2726 0
M  V30 32 H 1.5153 -0.0969 1.0240 0
M  V30 33 H 2.3646 -0.3711 -0.5019 0
M  V30 34 H 0.2686 -1.4995 -0.4896 0
M  V30 35 H -1.1748 -0.2057 0.7730 0
M  V30 36 H -1.7285 -0.4138 -0.9130 0
M  V30 37 C 1.5296 0.0362 0.1238 0
M  V30 38 N 0.3745 -0.5313 -0.4970 0
M  V30 39 C -0.8803 0.0255 -0.0798 0
M  V30 40 H 1.5812 -0.1517 1.2168 0
M  V30 41 H 2.4305 -0.4259 -0.3091 0
M  V30 42 H 0.3345 -1.5544 -0.2967 0
M  V30 43 H -1.1089 -0.2605 0.9658 0
M  V30 44 H -1.6626 -0.4686 -0.7202 0
M  V30 45 C 1.8418 1.1770 0.2131 0
M  V30 46 N 0.6867 0.6094 -0.4077 0
M  V30 47 C -0.5682 1.1663 0.0095 0
M  V30 48 H 1.8934 0.9890 1.3061 0
M  V30 49 H 2.7426 0.7149 -0.2198 0
M  V30 50 H 0.6466 -0.4136 -0.2075 0
M  V30 51 H -0.7967 0.8802 1.0551 0
M  V30 52 H -1.3505 0.6722 -0.6309 0
M  V30 53 C 0.4968 -0.5515 0.1780 0
M  V30 54 N -0.6583 -1.1191 -0.4427 0
M  V30 55 C -1.9131 -0.5622 -0.0255 0
M  V30 56 H 0.5484 -0.7395 1.2710 0
M  V30 57 H 1.3977 -1.0136 -0.2549 0
M  V30 58 H -0.6983 -2.1421 -0.2425 0
M  V30 59 H -2.1417 -0.8483 1.0200 0
M  V30 60 H -2.6955 -1.0563 -0.6660 0
M  V30 61 C 1.7572 0.6595 0.1029 0
M  V30 62 N 0.6021 0.0920 -0.5179 0
M  V30 63 C -0.6527 0.6488 -0.1007 0
M  V30 64 H 1.8088 0.4716 1.1959 0
M  V30 65 H 2.6581 0.1974 -0.3300 0
M  V30 66 H 0.5621 -0.9311 -0.3177 0
M  V30 67 H -0.8813 0.3627 0.9449 0
M  V30 68 H -1.4351 0.1547 -0.7411 0
M  V30 69 C 0.9798 -0.3312 0.0861 0
M  V30 70 N -0.1753 -0.8987 -0.5347 0
M  V30 71 C -1.4301 -0.3419 -0.1175 0
M  V30 72 H 1.0314 -0.5191 1.1791 0
M  V30 73 H 1.8807 -0.7933 -0.3468 0
M  V30 74 H -0.2153 -1.9218 -0.3345 0
M  V30 75 H -1.6586 -0.6280 0.9281 0
M  V30 76 H -2.2124 -0.8360 -0.7579 0
M  V30 END ATOM
M  V30 BEGIN BOND
M  V30 1 1 1 2
M  V30 2 1 2 3
M  V30 3 1 1 4
M  V30 4 1 2 5
M  V30 5 1 3 6
M  V30 6 1 3 7
M  V30 7 1 8 9
M  V30 8 1 9 10
M  V30 9 1 8 11
M  V30 10 1 9 12
M  V30 11 1 10 13
M  V30 12 1 10 14
M  V30 13 1 15 16
M  V30 14 1 16 17
M  V30 15 1 15 18
M  V30 16 1 16 19
M  V30 17 1 17 20
M  V30 18 1 17 21
M  V30 19 1 22 23
M  V30 20 1 23 24
M  V30 21 1 22 25
M  V30 22 1 23 26
M  V30 23 1 24 27
M  V30 24 1 24 28
M  V30 25 1 29 30
M  V30 26 1 30 31
M  V30 27 1 29 32
M  V30 28 1 29 33
M  V30 29 1 30 34
M  V30 30 1 31 35
M  V30 31 1 31 36
M  V30 32 1 37 38
M  V30 33 1 38 39
M  V30 34 1 37 40
M  V30 35 1 37 41
M  V30 36 1 38 42
M  V30 37 1 39 43
M  V30 38 1 39 44
M  V30 39 1 45 46
M  V30 40 1 46 47
M  V30 41 1 45 48
M  V30 42 1 45 49
M  V30 43 1 46 50
M  V30 44 1 47 51
M  V30 45 1 47 52
M  V30 46 1 53 54
M  V30 47 1 54 55
M  V30 48 1 53 56
M  V30 49 1 53 57
M  V30 50 1 54 58
M  V30 51 1 55 59
M  V30 52 1 55 60
M  V30 53 1 61 62
M  V30 54 1 62 63
M  V30 55 1 61 64
M  V30 56 1 61 65
M  V30 57 1 62 66
M  V30 58 1 63 67
M  V30 59 1 63 68
M  V30 60 1 69 70
M  V30 61 1 70 71
M  V30 62 1 69 72
M  V30 63 1 69 73
M  V30 64 1 70 74
M  V30 65 1 71 75
M  V30 66 1 71 76
M  V30 67 1 1 69
M  V30 68 1 1 53
M  V30 69 1 3 55
M  V30 70 1 8 37
M  V30 71 1 8 61
M  V30 72 1 10 29
M  V30 73 1 15 45
M  V30 74 1 15 47
M  V30 75 1 17 63
M  V30 76 1 22 31
M  V30 77 1 22 39
M  V30 78 1 24 71
M  V30 END BOND
M  V30 END CTAB
M  END

$$$$
