
     RDKit          3D

  0  0  0  0  0  0  0  0  0  0999 V3000
M  V30 BEGIN CTAB
M  V30 COUNTS 76 78 0 0 0
M  V30 BEGIN ATOM
M  V30 1 C 0.8368 -0.2664 0.3805 0
M  V30 2 B -0.5305 0.5510 0.4506 0
M  V30 3 C -1.9396 -0.2069 0.3583 0
M  V30 4 H 0.5784 -1.3444 0.5060 0
M  V30 5 H -0.5741 1.7079 0.1675 0
M  V30 6 H -2.6760 0.2403 1.0407 0
M  V30 7 H -2.2929 -0.2371 -0.6972 0
M  V30 8 C 1.5006 0.1219 -0.0581 0
M  V30 9 B 0.1333 0.9393 0.0119 0
M  V30 10 C -1.2758 0.1814 -0.0804 0
M  V30 11 H 1.2422 -0.9561 0.0673 0
M  V30 12 H 0.0897 2.0962 -0.2711 0
M  V30 13 H -2.0122 0.6286 0.6020 0
M  V30 14 H -1.6291 0.1512 -1.1358 0
M  V30 15 C 1.6470 0.6115 -0.7893 0
M  V30 16 B 0.2798 1.4288 -0.7192 0
M  V30 17 C -1.1293 0.6709 -0.8115 0
M  V30 18 H 1.3887 -0.4665 -0.6638 0
M  V30 19 H 0.2362 2.5857 -1.0023 0
M  V30 20 H -1.8657 1.1182 -0.1291 0
M  V30 21 H -1.4826 0.6407 -1.8670 0
M  V30 22 C 2.1358 0.0849 0.4747 0
M  V30 23 B 0.7686 0.9023 0.5448 0
M  V30 24 C -0.6405 0.1444 0.4525 0
M  V30 25 H 1.8774 -0.9931 0.6002 0
M  V30 26 H 0.7249 2.0592 0.2617 0
M  V30 27 H -1.3769 0.5916 1.1349 0
M  V30 28 H -0.9938 0.1142 -0.6030 0
M  V30 29 C 1.3815 0.4043 -0.3622 0
M  V30 30 N 0.2263 -0.1633 -0.9830 0
M  V30 31 C -1.0285 0.3936 -0.5658 0
M  V30 32 H 1.4331 0.2164 0.7307 0
M  V30 33 H 2.2823 -0.0578 -0.7951 0
M  V30 34 H 0.1863 -1.1863 -0.7828 0
M  V30 35 H -1.2570 0.1075 0.4798 0
M  V30 36 H -1.8108 -0.1005 -1.2063 0
M  V30 37 C 1.6630 0.1262 0.2948 0
M  V30 38 N 0.5079 -0.4413 -0.3260 0
M  V30 39 C -0.7469 0.1155 0.0912 0
M  V30 40 H 1.7146 -0.0617 1.3877 0
M  V30 41 H 2.5639 -0.3359 -0.1382 0
M  V30 42 H 0.4679 -1.4644 -0.1258 0
M  V30 43 H -0.9755 -0.1705 1.1368 0
M  V30 44 H -1.5293 -0.3786 -0.5493 0
M  V30 45 C 2.1002 0.1307 0.7555 0
M  V30 46 N 0.9451 -0.4369 0.1347 0
M  V30 47 C -0.3097 0.1200 0.5519 0
M  V30 48 H 2.1518 -0.0573 1.8484 0
M  V30 49 H 3.0011 -0.3314 0.3226 0
M  V30 50 H 0.9051 -1.4599 0.3349 0
M  V30 51 H -0.5383 -0.1661 1.5975 0
M  V30 52 H -1.0921 -0.3742 -0.0886 0
M  V30 53 C 0.4801 -0.3375 0.6312 0
M  V30 54 N -0.6750 -0.9050 0.0104 0
M  V30 55 C -1.9298 -0.3482 0.4276 0
M  V30 56 H 0.5317 -0.5254 1.7242 0
M  V30 57 H 1.3810 -0.7996 0.1983 0
M  V30 58 H -0.7150 -1.9281 0.2107 0
M  V30 59 H -2.1584 -0.6343 1.4732 0
M  V30 60 H -2.7121 -0.8423 -0.2128 0
M  V30 61 C 0.9544 -0.0490 0.2394 0
M  V30 62 N -0.2007 -0.6165 -0.3813 0
M  V30 63 C -1.4555 -0.0597 0.0359 0
M  V30 64 H 1.0060 -0.2369 1.3324 0
M  V30 65 H 1.8553 -0.5111 -0.1935 0
M  V30 66 H -0.2407 -1.6396 -0.1811 0
M  V30 67 H -1.6841 -0.3457 1.0814 0
M  V30 68 H -2.2379 -0.5538 -0.6046 0
M  V30 69 C 1.5221 0.8032 -0.8968 0
M  V30 70 N 0.3670 0.2356 -1.5175 0
M  V30 71 C -0.8878 0.7925 -1.1003 0
M  V30 72 H 1.5737 0.6152 0.1962 0
M  V30 73 H 2.4230 0.3411 -1.3297 0
M  V30 74 H 0.3270 -0.7874 -1.3173 0
M  V30 75 H -1.1164 0.5064 -0.0548 0
M  V30 76 H -1.6702 0.2984 -1.7408 0
M  V30 END ATOM
M  V30 BEGIN BOND
M  V30 1 1 1 2
M  V30 2 1 2 3
M  V30 3 1 1 4
M  V30 4 1 2 5
M  V30 5 1 3 6
M  V30 6 1 3 7
M  V30 7 1 8 9
M  V30 8 1 9 10
M  V30 9 1 8 11
M  V30 10 1 9 12
M  V30 11 1 10 13
M  V30 12 1 10 14
M  V30 13 1 15 16
M  V30 14 1 16 17
M  V30 15 1 15 18
M  V30 16 1 16 19
M  V30 17 1 17 20
M  V30 18 1 17 21
M  V30 19 1 22 23
M  V30 20 1 23 24
M  V30 21 1 22 25
M  V30 22 1 23 26
M  V30 23 1 24 27
M  V30 24 1 24 28
M  V30 25 1 29 30
M  V30 26 1 30 31
M  V30 27 1 29 32
M  V30 28 1 29 33
M  V30 29 1 30 34
M  V30 30 1 31 35
M  V30 31 1 31 36
M  V30 32 1 37 38
M  V30 33 1 38 39
M  V30 34 1 37 40
M  V30 35 1 37 41
M  V30 36 1 38 42
M  V30 37 1 39 43
M  V30 38 1 39 44
M  V30 39 1 45 46
M  V30 40 1 46 47
M  V30 41 1 45 48
M  V30 42 1 45 49
M  V30 43 1 46 50
M  V30 44 1 47 51
M  V30 45 1 47 52
M  V30 46 1 53 54
M  V30 47 1 54 55
M  V30 48 1 53 56
M  V30 49 1 53 57
M  V30 50 1 54 58
M  V30 51 1 55 59
M  V30 52 1 55 60
M  V30 53 1 61 62
M  V30 54 1 62 63
M  V30 55 1 61 64
M  V30 56 1 61 65
M  V30 57 1 62 66
M  V30 58 1 63 67
M  V30 59 1 63 68
M  V30 60 1 69 70
M  V30 61 1 70 71
M  V30 62 1 69 72
M  V30 63 1 69 73
M  V30 64 1 70 74
M  V30 65 1 71 75
M  V30 66 1 71 76
M  V30 67 1 1 53
M  V30 68 1 1 61
M  V30 69 1 3 55
M  V30 70 1 8 37
M  V30 71 1 8 63
M  V30 72 1 10 29
M  V30 73 1 15 69
M  V30 74 1 15 71
M  V30 75 1 17 31
M  V30 76 1 22 45
M  V30 77 1 22 39
M  V30 78 1 24 47
M  V30 END BOND
M  V30 END CTAB
M  END

$$$$
