
     RDKit          3D

  0  0  0  0  0  0  0  0  0  0999 V3000
M  V30 BEGIN CTAB
M  V30 COUNTS 76 78 0 0 0
M  V30 BEGIN ATOM
M  V30 1 C 1.0317 -0.8854 0.9931 0
M  V30 2 B -0.4978 -0.4497 0.8780 0
M  V30 3 C -0.9174 1.0928 0.9931 0
M  V30 4 H 1.6421 0.0449 0.9128 0
M  V30 5 H -1.3785 -1.2183 1.1103 0
M  V30 6 H -1.7227 1.3386 0.2868 0
M  V30 7 H -1.1763 1.3445 2.0464 0
M  V30 8 C 1.3004 0.4302 -0.8986 0
M  V30 9 B 0.0769 -0.5878 -0.9938 0
M  V30 10 C -0.3482 -1.4731 0.2727 0
M  V30 11 H 1.5532 0.5350 0.1830 0
M  V30 12 H -0.2844 -1.0234 -2.0427 0
M  V30 13 H -1.4413 -1.5613 0.3461 0
M  V30 14 H 0.1628 -2.4618 0.2412 0
M  V30 15 C -0.6794 0.5323 -0.9743 0
M  V30 16 B 0.9118 0.4876 -0.8829 0
M  V30 17 C 1.6777 1.1700 0.3484 0
M  V30 18 H -1.0532 0.8692 0.0214 0
M  V30 19 H 1.5827 0.3340 -1.8560 0
M  V30 20 H 2.5347 0.5612 0.6691 0
M  V30 21 H 1.9634 2.2155 0.0933 0
M  V30 22 C -0.6700 -1.6702 -1.0625 0
M  V30 23 B -0.6203 -0.0838 -0.9106 0
M  V30 24 C -1.1243 0.6228 0.4367 0
M  V30 25 H -0.8599 -2.0888 -0.0460 0
M  V30 26 H -0.6100 0.6285 -1.8661 0
M  V30 27 H -0.4802 1.4723 0.7039 0
M  V30 28 H -2.1968 0.9075 0.3450 0
M  V30 29 C -0.0103 0.3592 1.4625 0
M  V30 30 N 1.1865 -0.2503 0.9747 0
M  V30 31 C 1.0091 -1.1495 -0.1293 0
M  V30 32 H -0.7252 -0.3645 1.9072 0
M  V30 33 H 0.2510 1.0647 2.2666 0
M  V30 34 H 1.6411 -0.7946 1.7398 0
M  V30 35 H 0.4858 -2.0708 0.1945 0
M  V30 36 H 2.0446 -1.4661 -0.4358 0
M  V30 37 C -0.2683 -0.1132 1.6741 0
M  V30 38 N -1.0593 -1.0752 0.9735 0
M  V30 39 C -1.4793 -0.6817 -0.3408 0
M  V30 40 H -0.8176 0.8220 1.9115 0
M  V30 41 H 0.0399 -0.5409 2.6408 0
M  V30 42 H -1.9238 -1.2840 1.5189 0
M  V30 43 H -2.2321 0.1292 -0.2864 0
M  V30 44 H -2.0089 -1.5754 -0.7734 0
M  V30 45 C 0.6543 -1.4895 -0.7575 0
M  V30 46 N -0.5857 -1.1544 -1.3834 0
M  V30 47 C -1.5641 -0.5556 -0.5214 0
M  V30 48 H 0.5594 -2.2800 0.0163 0
M  V30 49 H 1.3421 -1.8882 -1.5194 0
M  V30 50 H -1.0202 -2.0134 -1.7855 0
M  V30 51 H -1.9518 -1.2954 0.2064 0
M  V30 52 H -2.4307 -0.2822 -1.1852 0
M  V30 53 C -0.4388 0.9701 1.4003 0
M  V30 54 N 0.4573 1.7380 0.5945 0
M  V30 55 C 1.4838 0.9848 -0.0670 0
M  V30 56 H 0.0520 0.4915 2.2736 0
M  V30 57 H -1.2108 1.6389 1.8115 0
M  V30 58 H 0.9369 2.4521 1.1847 0
M  V30 59 H 2.2221 0.6004 0.6641 0
M  V30 60 H 2.0352 1.7217 -0.7145 0
M  V30 61 C 0.4908 1.0959 -0.8738 0
M  V30 62 N -0.9154 0.9442 -0.6709 0
M  V30 63 C -1.3544 -0.3958 -0.4051 0
M  V30 64 H 0.8644 0.5793 -1.7827 0
M  V30 65 H 0.7177 2.1642 -1.0137 0
M  V30 66 H -1.4302 1.2702 -1.5177 0
M  V30 67 H -1.2585 -1.0274 -1.3102 0
M  V30 68 H -2.4561 -0.3199 -0.1887 0
M  V30 69 C 0.5540 -0.3202 -1.5668 0
M  V30 70 N 1.6537 0.0920 -0.7528 0
M  V30 71 C 1.3289 1.0248 0.2879 0
M  V30 72 H 0.1153 0.5042 -2.1672 0
M  V30 73 H 0.9076 -1.0712 -2.2903 0
M  V30 74 H 2.3824 0.5425 -1.3481 0
M  V30 75 H 1.0708 2.0144 -0.1380 0
M  V30 76 H 2.2779 1.1717 0.8746 0
M  V30 END ATOM
M  V30 BEGIN BOND
M  V30 1 1 1 2
M  V30 2 1 2 3
M  V30 3 1 1 4
M  V30 4 1 2 5
M  V30 5 1 3 6
M  V30 6 1 3 7
M  V30 7 1 8 9
M  V30 8 1 9 10
M  V30 9 1 8 11
M  V30 10 1 9 12
M  V30 11 1 10 13
M  V30 12 1 10 14
M  V30 13 1 15 16
M  V30 14 1 16 17
M  V30 15 1 15 18
M  V30 16 1 16 19
M  V30 17 1 17 20
M  V30 18 1 17 21
M  V30 19 1 22 23
M  V30 20 1 23 24
M  V30 21 1 22 25
M  V30 22 1 23 26
M  V30 23 1 24 27
M  V30 24 1 24 28
M  V30 25 1 29 30
M  V30 26 1 30 31
M  V30 27 1 29 32
M  V30 28 1 29 33
M  V30 29 1 30 34
M  V30 30 1 31 35
M  V30 31 1 31 36
M  V30 32 1 37 38
M  V30 33 1 38 39
M  V30 34 1 37 40
M  V30 35 1 37 41
M  V30 36 1 38 42
M  V30 37 1 39 43
M  V30 38 1 39 44
M  V30 39 1 45 46
M  V30 40 1 46 47
M  V30 41 1 45 48
M  V30 42 1 45 49
M  V30 43 1 46 50
M  V30 44 1 47 51
M  V30 45 1 47 52
M  V30 46 1 53 54
M  V30 47 1 54 55
M  V30 48 1 53 56
M  V30 49 1 53 57
M  V30 50 1 54 58
M  V30 51 1 55 59
M  V30 52 1 55 60
M  V30 53 1 61 62
M  V30 54 1 62 63
M  V30 55 1 61 64
M  V30 56 1 61 65
M  V30 57 1 62 66
M  V30 58 1 63 67
M  V30 59 1 63 68
M  V30 60 1 69 70
M  V30 61 1 70 71
M  V30 62 1 69 72
M  V30 63 1 69 73
M  V30 64 1 70 74
M  V30 65 1 71 75
M  V30 66 1 71 76
M  V30 67 1 1 29
M  V30 68 1 1 53
M  V30 69 1 3 37
M  V30 70 1 8 69
M  V30 71 1 10 45
M  V30 72 1 8 31
M  V30 73 1 15 61
M  V30 74 1 17 71
M  V30 75 1 15 55
M  V30 76 1 22 47
M  V30 77 1 24 63
M  V30 78 1 22 39
M  V30 END BOND
M  V30 END CTAB
M  END

$$$$
