
     RDKit          3D

  0  0  0  0  0  0  0  0  0  0999 V3000
M  V30 BEGIN CTAB
M  V30 COUNTS 76 78 0 0 0
M  V30 BEGIN ATOM
M  V30 1 C 1.4047 0.0730 -0.0544 0
M  V30 2 B 0.0375 0.8904 0.0157 0
M  V30 3 C -1.3716 0.1325 -0.0766 0
M  V30 4 H 1.1463 -1.0050 0.0710 0
M  V30 5 H -0.0061 2.0473 -0.2674 0
M  V30 6 H -2.1080 0.5797 0.6058 0
M  V30 7 H -1.7249 0.1023 -1.1321 0
M  V30 8 C 1.9050 0.3266 0.3908 0
M  V30 9 B 0.5378 1.1439 0.4609 0
M  V30 10 C -0.8713 0.3860 0.3685 0
M  V30 11 H 1.6466 -0.7514 0.5162 0
M  V30 12 H 0.4941 2.3008 0.1778 0
M  V30 13 H -1.6077 0.8332 1.0509 0
M  V30 14 H -1.2247 0.3558 -0.6869 0
M  V30 15 C 2.0739 0.0802 0.2052 0
M  V30 16 B 0.7067 0.8975 0.2752 0
M  V30 17 C -0.7024 0.1396 0.1829 0
M  V30 18 H 1.8155 -0.9978 0.3306 0
M  V30 19 H 0.6631 2.0544 -0.0078 0
M  V30 20 H -1.4388 0.5869 0.8653 0
M  V30 21 H -1.0557 0.1094 -0.8725 0
M  V30 22 C 0.7250 0.0604 -0.4939 0
M  V30 23 B -0.6422 0.8777 -0.4239 0
M  V30 24 C -2.0513 0.1198 -0.5162 0
M  V30 25 H 0.4666 -1.0176 -0.3685 0
M  V30 26 H -0.6858 2.0346 -0.7070 0
M  V30 27 H -2.7877 0.5671 0.1662 0
M  V30 28 H -2.4046 0.0896 -1.5717 0
M  V30 29 C 0.8609 0.0858 -0.1946 0
M  V30 30 N -0.2942 -0.4817 -0.8154 0
M  V30 31 C -1.5490 0.0751 -0.3982 0
M  V30 32 H 0.9125 -0.1021 0.8983 0
M  V30 33 H 1.7618 -0.3763 -0.6275 0
M  V30 34 H -0.3342 -1.5048 -0.6152 0
M  V30 35 H -1.7776 -0.2110 0.6474 0
M  V30 36 H -2.3313 -0.4190 -1.0387 0
M  V30 37 C 1.9377 0.1853 0.5810 0
M  V30 38 N 0.7826 -0.3822 -0.0398 0
M  V30 39 C -0.4722 0.1746 0.3775 0
M  V30 40 H 1.9893 -0.0026 1.6740 0
M  V30 41 H 2.8386 -0.2768 0.1481 0
M  V30 42 H 0.7426 -1.4053 0.1605 0
M  V30 43 H -0.7008 -0.1115 1.4230 0
M  V30 44 H -1.2546 -0.3195 -0.2630 0
M  V30 45 C 0.3487 0.1192 -0.5322 0
M  V30 46 N -0.8064 -0.4484 -1.1530 0
M  V30 47 C -2.0612 0.1085 -0.7358 0
M  V30 48 H 0.4003 -0.0688 0.5608 0
M  V30 49 H 1.2496 -0.3429 -0.9651 0
M  V30 50 H -0.8464 -1.4714 -0.9528 0
M  V30 51 H -2.2898 -0.1776 0.3098 0
M  V30 52 H -2.8435 -0.3857 -1.3762 0
M  V30 53 C 1.3971 0.2923 0.3055 0
M  V30 54 N 0.2420 -0.2752 -0.3152 0
M  V30 55 C -1.0128 0.2816 0.1020 0
M  V30 56 H 1.4487 0.1044 1.3985 0
M  V30 57 H 2.2980 -0.1698 -0.1274 0
M  V30 58 H 0.2020 -1.2983 -0.1150 0
M  V30 59 H -1.2414 -0.0045 1.1475 0
M  V30 60 H -1.7952 -0.2125 -0.5385 0
M  V30 61 C 1.5804 0.0179 0.1032 0
M  V30 62 N 0.4253 -0.5496 -0.5176 0
M  V30 63 C -0.8295 0.0072 -0.1004 0
M  V30 64 H 1.6320 -0.1700 1.1962 0
M  V30 65 H 2.4813 -0.4442 -0.3297 0
M  V30 66 H 0.3853 -1.5727 -0.3173 0
M  V30 67 H -1.0580 -0.2789 0.9452 0
M  V30 68 H -1.6118 -0.4869 -0.7408 0
M  V30 69 C 1.9865 0.3878 0.3642 0
M  V30 70 N 0.8314 -0.1798 -0.2566 0
M  V30 71 C -0.4235 0.3770 0.1606 0
M  V30 72 H 2.0381 0.1998 1.4572 0
M  V30 73 H 2.8873 -0.0744 -0.0687 0
M  V30 74 H 0.7913 -1.2029 -0.0563 0
M  V30 75 H -0.6520 0.0910 1.2062 0
M  V30 76 H -1.2058 -0.1171 -0.4798 0
M  V30 END ATOM
M  V30 BEGIN BOND
M  V30 1 1 1 2
M  V30 2 1 2 3
M  V30 3 1 1 4
M  V30 4 1 2 5
M  V30 5 1 3 6
M  V30 6 1 3 7
M  V30 7 1 8 9
M  V30 8 1 9 10
M  V30 9 1 8 11
M  V30 10 1 9 12
M  V30 11 1 10 13
M  V30 12 1 10 14
M  V30 13 1 15 16
M  V30 14 1 16 17
M  V30 15 1 15 18
M  V30 16 1 16 19
M  V30 17 1 17 20
M  V30 18 1 17 21
M  V30 19 1 22 23
M  V30 20 1 23 24
M  V30 21 1 22 25
M  V30 22 1 23 26
M  V30 23 1 24 27
M  V30 24 1 24 28
M  V30 25 1 29 30
M  V30 26 1 30 31
M  V30 27 1 29 32
M  V30 28 1 29 33
M  V30 29 1 30 34
M  V30 30 1 31 35
M  V30 31 1 31 36
M  V30 32 1 37 38
M  V30 33 1 38 39
M  V30 34 1 37 40
M  V30 35 1 37 41
M  V30 36 1 38 42
M  V30 37 1 39 43
M  V30 38 1 39 44
M  V30 39 1 45 46
M  V30 40 1 46 47
M  V30 41 1 45 48
M  V30 42 1 45 49
M  V30 43 1 46 50
M  V30 44 1 47 51
M  V30 45 1 47 52
M  V30 46 1 53 54
M  V30 47 1 54 55
M  V30 48 1 53 56
M  V30 49 1 53 57
M  V30 50 1 54 58
M  V30 51 1 55 59
M  V30 52 1 55 60
M  V30 53 1 61 62
M  V30 54 1 62 63
M  V30 55 1 61 64
M  V30 56 1 61 65
M  V30 57 1 62 66
M  V30 58 1 63 67
M  V30 59 1 63 68
M  V30 60 1 69 70
M  V30 61 1 70 71
M  V30 62 1 69 72
M  V30 63 1 69 73
M  V30 64 1 70 74
M  V30 65 1 71 75
M  V30 66 1 71 76
M  V30 67 1 1 29
M  V30 68 1 1 53
M  V30 69 1 3 61
M  V30 70 1 8 69
M  V30 71 1 8 55
M  V30 72 1 10 37
M  V30 73 1 15 39
M  V30 74 1 15 71
M  V30 75 1 17 63
M  V30 76 1 22 45
M  V30 77 1 22 47
M  V30 78 1 24 31
M  V30 END BOND
M  V30 END CTAB
M  END

$$$$
