
     RDKit          3D

  0  0  0  0  0  0  0  0  0  0999 V3000
M  V30 BEGIN CTAB
M  V30 COUNTS 76 78 0 0 0
M  V30 BEGIN ATOM
M  V30 1 C 0.9142 -0.4862 1.0791 0
M  V30 2 B -0.0464 0.7168 0.6642 0
M  V30 3 C -0.1996 1.1455 -0.8725 0
M  V30 4 H 1.1849 -1.0253 0.1407 0
M  V30 5 H -0.3452 1.5666 1.4446 0
M  V30 6 H -1.2389 1.4151 -1.1073 0
M  V30 7 H 0.5224 1.9559 -1.1207 0
M  V30 8 C -0.7362 -0.1181 1.4247 0
M  V30 9 B 0.0190 -1.0204 0.3487 0
M  V30 10 C -0.2551 -0.8230 -1.2180 0
M  V30 11 H -1.2129 0.7227 0.8675 0
M  V30 12 H 0.4654 -2.0864 0.6400 0
M  V30 13 H 0.6718 -0.9280 -1.7992 0
M  V30 14 H -1.0583 -1.5145 -1.5592 0
M  V30 15 C -0.4091 -1.5933 -0.1799 0
M  V30 16 B 0.7878 -0.6061 -0.5475 0
M  V30 17 C 1.1237 0.6521 0.3866 0
M  V30 18 H -0.7124 -1.3610 0.8683 0
M  V30 19 H 1.1883 -0.5099 -1.6660 0
M  V30 20 H 2.2087 0.8061 0.4697 0
M  V30 21 H 0.5867 1.5570 0.0225 0
M  V30 22 C -0.7362 -0.0228 1.4247 0
M  V30 23 B -0.4971 1.0938 0.3119 0
M  V30 24 C -0.2551 0.6821 -1.2180 0
M  V30 25 H -0.9288 -0.9816 0.8877 0
M  V30 26 H -0.0924 2.1771 0.6003 0
M  V30 27 H -0.7581 1.3808 -1.9011 0
M  V30 28 H 0.8350 0.5875 -1.4241 0
M  V30 29 C -0.6142 -1.2797 1.1050 0
M  V30 30 N -1.2301 -0.0739 1.5617 0
M  V30 31 C -0.6166 1.1388 1.1017 0
M  V30 32 H 0.4185 -1.4208 1.4874 0
M  V30 33 H -1.1967 -2.1390 1.4724 0
M  V30 34 H -1.2161 -0.0449 2.6044 0
M  V30 35 H 0.3750 1.2814 1.5746 0
M  V30 36 H -1.2692 1.9743 1.4789 0
M  V30 37 C -0.6143 -1.2797 -0.7638 0
M  V30 38 N -0.1372 -0.0727 -1.3614 0
M  V30 39 C -0.6165 1.1388 -0.7604 0
M  V30 40 H -1.7099 -1.4231 -0.8715 0
M  V30 41 H -0.1423 -2.1378 -1.2672 0
M  V30 42 H -0.4155 -0.0440 -2.3665 0
M  V30 43 H -1.6960 1.2791 -0.9661 0
M  V30 44 H -0.0829 1.9757 -1.2907 0
M  V30 45 C -1.2784 -0.8720 -0.0320 0
M  V30 46 N -0.0721 -1.5485 0.3272 0
M  V30 47 C 1.1401 -0.8693 -0.0305 0
M  V30 48 H -1.4205 -0.7742 -1.1287 0
M  V30 49 H -2.1372 -1.4541 0.3371 0
M  V30 50 H -0.0432 -2.4843 -0.1330 0
M  V30 51 H 1.2818 -0.8708 -1.1292 0
M  V30 52 H 1.9762 -1.4900 0.3963 0
M  V30 53 C 0.4771 1.1388 -0.0829 0
M  V30 54 N 0.2985 -0.0681 -0.8267 0
M  V30 55 C 0.4770 -1.2797 -0.0793 0
M  V30 56 H 1.5149 1.2819 0.2846 0
M  V30 57 H 0.2636 1.9970 -0.7390 0
M  V30 58 H 0.9770 -0.0968 -1.6187 0
M  V30 59 H 1.5417 -1.4203 0.1926 0
M  V30 60 H 0.2188 -2.1165 -0.7861 0
M  V30 61 C 0.4767 1.1388 0.4241 0
M  V30 62 N 1.1830 -0.0672 0.7215 0
M  V30 63 C 0.4773 -1.2797 0.4206 0
M  V30 64 H -0.4355 1.2803 1.0409 0
M  V30 65 H 1.1301 1.9978 0.6425 0
M  V30 66 H 1.4172 -0.0962 1.7377 0
M  V30 67 H -0.3735 -1.4220 1.1157 0
M  V30 68 H 1.2006 -2.1155 0.6322 0
M  V30 69 C 1.1400 0.7349 -0.0207 0
M  V30 70 N -0.0717 1.4075 0.3272 0
M  V30 71 C -1.2784 0.7246 -0.0418 0
M  V30 72 H 1.2926 0.6375 -1.1160 0
M  V30 73 H 1.9934 1.3197 0.3565 0
M  V30 74 H -0.0992 2.3432 -0.1333 0
M  V30 75 H -1.4098 0.7256 -1.1418 0
M  V30 76 H -2.1204 1.3426 0.3771 0
M  V30 END ATOM
M  V30 BEGIN BOND
M  V30 1 1 1 2
M  V30 2 1 2 3
M  V30 3 1 1 4
M  V30 4 1 2 5
M  V30 5 1 3 6
M  V30 6 1 3 7
M  V30 7 1 8 9
M  V30 8 1 9 10
M  V30 9 1 8 11
M  V30 10 1 9 12
M  V30 11 1 10 13
M  V30 12 1 10 14
M  V30 13 1 15 16
M  V30 14 1 16 17
M  V30 15 1 15 18
M  V30 16 1 16 19
M  V30 17 1 17 20
M  V30 18 1 17 21
M  V30 19 1 22 23
M  V30 20 1 23 24
M  V30 21 1 22 25
M  V30 22 1 23 26
M  V30 23 1 24 27
M  V30 24 1 24 28
M  V30 25 1 29 30
M  V30 26 1 30 31
M  V30 27 1 29 32
M  V30 28 1 29 33
M  V30 29 1 30 34
M  V30 30 1 31 35
M  V30 31 1 31 36
M  V30 32 1 37 38
M  V30 33 1 38 39
M  V30 34 1 37 40
M  V30 35 1 37 41
M  V30 36 1 38 42
M  V30 37 1 39 43
M  V30 38 1 39 44
M  V30 39 1 45 46
M  V30 40 1 46 47
M  V30 41 1 45 48
M  V30 42 1 45 49
M  V30 43 1 46 50
M  V30 44 1 47 51
M  V30 45 1 47 52
M  V30 46 1 53 54
M  V30 47 1 54 55
M  V30 48 1 53 56
M  V30 49 1 53 57
M  V30 50 1 54 58
M  V30 51 1 55 59
M  V30 52 1 55 60
M  V30 53 1 61 62
M  V30 54 1 62 63
M  V30 55 1 61 64
M  V30 56 1 61 65
M  V30 57 1 62 66
M  V30 58 1 63 67
M  V30 59 1 63 68
M  V30 60 1 69 70
M  V30 61 1 70 71
M  V30 62 1 69 72
M  V30 63 1 69 73
M  V30 64 1 70 74
M  V30 65 1 71 75
M  V30 66 1 71 76
M  V30 67 1 1 61
M  V30 68 1 3 69
M  V30 69 1 1 53
M  V30 70 1 8 29
M  V30 71 1 8 37
M  V30 72 1 10 45
M  V30 73 1 15 47
M  V30 74 1 17 55
M  V30 75 1 15 63
M  V30 76 1 22 31
M  V30 77 1 22 39
M  V30 78 1 24 71
M  V30 END BOND
M  V30 END CTAB
M  END

$$$$
