
     RDKit          3D

  0  0  0  0  0  0  0  0  0  0999 V3000
M  V30 BEGIN CTAB
M  V30 COUNTS 85 90 0 0 0
M  V30 BEGIN ATOM
M  V30 1 C -2.3189 2.1989 6.0170 0
M  V30 2 C -2.0205 0.8844 6.7088 0
M  V30 3 C -3.0242 -0.1879 6.2938 0
M  V30 4 O -2.9264 -0.3500 4.9288 0
M  V30 5 C -3.7893 -1.3029 4.4085 0
M  V30 6 C -4.7744 -0.6535 3.5024 0
M  V30 7 C -5.7509 -1.6267 2.8960 0
M  V30 8 H -1.5168 2.9030 6.3194 0
M  V30 9 H -3.3110 2.5439 6.3712 0
M  V30 10 H -0.9868 0.6082 6.3702 0
M  V30 11 H -2.8364 -1.0944 6.8919 0
M  V30 12 H -4.0313 0.2572 6.5281 0
M  V30 13 H -4.3609 -1.7035 5.2780 0
M  V30 14 H -5.3396 0.1407 4.0079 0
M  V30 15 H -4.2899 -0.1491 2.6210 0
M  V30 16 H -6.2554 -2.1756 3.7308 0
M  V30 17 H -6.5551 -1.1286 2.3315 0
M  V30 18 C 4.1761 4.9383 0.0076 0
M  V30 19 C 3.5071 5.2165 1.3382 0
M  V30 20 C 2.0523 5.6328 1.1382 0
M  V30 21 O 1.4027 4.5984 0.5001 0
M  V30 22 C 0.0600 4.8407 0.2516 0
M  V30 23 C -0.1819 4.8965 -1.2151 0
M  V30 24 C -1.6227 5.1582 -1.5671 0
M  V30 25 H 5.2019 4.5850 0.2387 0
M  V30 26 H 4.1974 5.8903 -0.5599 0
M  V30 27 H 3.5654 4.2462 1.8990 0
M  V30 28 H 1.6330 5.9229 2.1152 0
M  V30 29 H 2.1003 6.5106 0.4350 0
M  V30 30 H -0.1456 5.8597 0.6550 0
M  V30 31 H 0.4422 5.6536 -1.7081 0
M  V30 32 H 0.0679 3.9307 -1.7355 0
M  V30 33 H -1.9361 6.1052 -1.0595 0
M  V30 34 H -1.7748 5.3277 -2.6449 0
M  V30 35 C 4.1761 -4.8614 0.0076 0
M  V30 36 C 3.5071 -5.1396 -1.3230 0
M  V30 37 C 2.0523 -5.5559 -1.1231 0
M  V30 38 O 1.4027 -4.5215 -0.4850 0
M  V30 39 C 0.0600 -4.7638 -0.2365 0
M  V30 40 C -0.1819 -4.8197 1.2303 0
M  V30 41 C -1.6227 -5.0814 1.5823 0
M  V30 42 H 5.2019 -4.5082 -0.2236 0
M  V30 43 H 4.1974 -5.8134 0.5751 0
M  V30 44 H 3.5654 -4.1693 -1.8838 0
M  V30 45 H 1.6330 -5.8460 -2.1001 0
M  V30 46 H 2.1003 -6.4337 -0.4198 0
M  V30 47 H -0.1456 -5.7828 -0.6398 0
M  V30 48 H 0.4422 -5.5767 1.7233 0
M  V30 49 H 0.0679 -3.8538 1.7506 0
M  V30 50 H -1.9361 -6.0284 1.0746 0
M  V30 51 H -1.7748 -5.2509 2.6601 0
M  V30 52 C -2.3189 -2.1220 -6.0018 0
M  V30 53 C -2.0205 -0.8075 -6.6937 0
M  V30 54 C -3.0242 0.2648 -6.2787 0
M  V30 55 O -2.9264 0.4268 -4.9136 0
M  V30 56 C -3.7893 1.3797 -4.3933 0
M  V30 57 C -4.7744 0.7304 -3.4872 0
M  V30 58 C -5.7509 1.7035 -2.8809 0
M  V30 59 H -1.5168 -2.8261 -6.3043 0
M  V30 60 H -3.3110 -2.4670 -6.3560 0
M  V30 61 H -0.9868 -0.5314 -6.3551 0
M  V30 62 H -2.8364 1.1713 -6.8767 0
M  V30 63 H -4.0313 -0.1804 -6.5129 0
M  V30 64 H -4.3609 1.7804 -5.2628 0
M  V30 65 H -5.3396 -0.0639 -3.9927 0
M  V30 66 H -4.2899 0.2260 -2.6058 0
M  V30 67 H -6.2554 2.2525 -3.7156 0
M  V30 68 H -6.5551 1.2054 -2.3164 0
M  V30 69 C 4.5413 2.6844 0.0692 0
M  V30 70 C 3.9417 2.0154 -1.1508 0
M  V30 71 C 4.3930 0.5607 -1.2494 0
M  V30 72 O 3.9703 -0.0890 -0.1099 0
M  V30 73 C 4.3142 -1.4317 -0.0631 0
M  V30 74 C 5.2609 -1.6736 1.0586 0
M  V30 75 C 5.6838 -3.1144 1.1750 0
M  V30 76 H 4.1206 3.7102 0.1044 0
M  V30 77 H 5.6410 2.7057 -0.0693 0
M  V30 78 H 2.8318 2.0737 -0.9956 0
M  V30 79 H 4.0203 0.1414 -2.1980 0
M  V30 80 H 5.5176 0.6086 -1.2353 0
M  V30 81 H 4.8692 -1.6372 -1.0081 0
M  V30 82 H 6.1610 -1.0495 0.9813 0
M  V30 83 H 4.8198 -1.4238 2.0632 0
M  V30 84 H 6.1178 -3.4278 0.1921 0
M  V30 85 H 6.4807 -3.2664 1.9202 0
M  V30 END ATOM
M  V30 BEGIN BOND
M  V30 1 1 1 2
M  V30 2 1 2 3
M  V30 3 1 3 4
M  V30 4 1 4 5
M  V30 5 1 5 6
M  V30 6 1 6 7
M  V30 7 1 1 8
M  V30 8 1 1 9
M  V30 9 1 2 10
M  V30 10 1 3 11
M  V30 11 1 3 12
M  V30 12 1 5 13
M  V30 13 1 6 14
M  V30 14 1 6 15
M  V30 15 1 7 16
M  V30 16 1 7 17
M  V30 17 1 18 19
M  V30 18 1 19 20
M  V30 19 1 20 21
M  V30 20 1 21 22
M  V30 21 1 22 23
M  V30 22 1 23 24
M  V30 23 1 18 25
M  V30 24 1 18 26
M  V30 25 1 19 27
M  V30 26 1 20 28
M  V30 27 1 20 29
M  V30 28 1 22 30
M  V30 29 1 23 31
M  V30 30 1 23 32
M  V30 31 1 24 33
M  V30 32 1 24 34
M  V30 33 1 35 36
M  V30 34 1 36 37
M  V30 35 1 37 38
M  V30 36 1 38 39
M  V30 37 1 39 40
M  V30 38 1 40 41
M  V30 39 1 35 42
M  V30 40 1 35 43
M  V30 41 1 36 44
M  V30 42 1 37 45
M  V30 43 1 37 46
M  V30 44 1 39 47
M  V30 45 1 40 48
M  V30 46 1 40 49
M  V30 47 1 41 50
M  V30 48 1 41 51
M  V30 49 1 52 53
M  V30 50 1 53 54
M  V30 51 1 54 55
M  V30 52 1 55 56
M  V30 53 1 56 57
M  V30 54 1 57 58
M  V30 55 1 52 59
M  V30 56 1 52 60
M  V30 57 1 53 61
M  V30 58 1 54 62
M  V30 59 1 54 63
M  V30 60 1 56 64
M  V30 61 1 57 65
M  V30 62 1 57 66
M  V30 63 1 58 67
M  V30 64 1 58 68
M  V30 65 1 69 70
M  V30 66 1 70 71
M  V30 67 1 71 72
M  V30 68 1 72 73
M  V30 69 1 73 74
M  V30 70 1 74 75
M  V30 71 1 69 76
M  V30 72 1 69 77
M  V30 73 1 70 78
M  V30 74 1 71 79
M  V30 75 1 71 80
M  V30 76 1 73 81
M  V30 77 1 74 82
M  V30 78 1 74 83
M  V30 79 1 75 84
M  V30 80 1 75 85
M  V30 81 1 18 69
M  V30 82 1 35 73
M  V30 83 1 39 52
M  V30 84 1 24 53
M  V30 85 1 19 70
M  V30 86 1 1 22
M  V30 87 1 36 75
M  V30 88 1 2 41
M  V30 89 1 5 56
M  V30 90 1 7 58
M  V30 END BOND
M  V30 END CTAB
M  END

$$$$
