
     RDKit          3D

  0  0  0  0  0  0  0  0  0  0999 V3000
M  V30 BEGIN CTAB
M  V30 COUNTS 85 90 0 0 0
M  V30 BEGIN ATOM
M  V30 1 C -4.4602 0.3797 -1.4639 0
M  V30 2 C -4.4274 -0.7264 -2.4988 0
M  V30 3 C -3.6337 -0.2956 -3.7293 0
M  V30 4 O -2.3500 -0.0046 -3.3211 0
M  V30 5 C -1.5093 0.4045 -4.3454 0
M  V30 6 C -1.0925 1.8156 -4.1259 0
M  V30 7 C -0.1752 2.3352 -5.2014 0
M  V30 8 H -4.9969 -0.0289 -0.5833 0
M  V30 9 H -5.0088 1.2347 -1.9076 0
M  V30 10 H -3.9219 -1.5868 -1.9856 0
M  V30 11 H -3.7188 -1.0836 -4.4951 0
M  V30 12 H -4.1251 0.6595 -4.0664 0
M  V30 13 H -2.1283 0.3879 -5.2727 0
M  V30 14 H -1.9533 2.4923 -4.0426 0
M  V30 15 H -0.5184 1.9569 -3.1685 0
M  V30 16 H -0.6888 2.2038 -6.1871 0
M  V30 17 H 0.0261 3.4141 -5.1062 0
M  V30 18 C -2.0221 -0.7782 4.6302 0
M  V30 19 C -1.4816 -2.1752 4.4022 0
M  V30 20 C -2.2396 -2.8738 3.2766 0
M  V30 21 O -2.0800 -2.1225 2.1324 0
M  V30 22 C -2.7217 -2.6436 1.0188 0
M  V30 23 C -3.7961 -1.7163 0.5729 0
M  V30 24 C -4.5430 -2.2147 -0.6362 0
M  V30 25 H -1.3850 -0.3181 5.4132 0
M  V30 26 H -3.0711 -0.8791 4.9739 0
M  V30 27 H -0.4060 -2.0258 4.1189 0
M  V30 28 H -1.8873 -3.9159 3.2105 0
M  V30 29 H -3.3207 -2.8247 3.5866 0
M  V30 30 H -3.2209 -3.5788 1.3646 0
M  V30 31 H -4.5208 -1.5093 1.3715 0
M  V30 32 H -3.4027 -0.7069 0.2691 0
M  V30 33 H -4.9459 -3.2316 -0.3988 0
M  V30 34 H -5.4177 -1.5926 -0.8839 0
M  V30 35 C 3.4872 3.4686 1.1593 0
M  V30 36 C 2.6439 4.2992 0.2136 0
M  V30 37 C 2.7432 3.7663 -1.2131 0
M  V30 38 O 2.2894 2.4651 -1.2087 0
M  V30 39 C 2.3231 1.8495 -2.4510 0
M  V30 40 C 3.2880 0.7174 -2.4295 0
M  V30 41 C 3.3825 -0.0039 -3.7482 0
M  V30 42 H 3.3147 3.8769 2.1762 0
M  V30 43 H 4.5460 3.5875 0.8530 0
M  V30 44 H 1.5947 4.1991 0.5991 0
M  V30 45 H 2.2010 4.4535 -1.8828 0
M  V30 46 H 3.8460 3.7578 -1.4390 0
M  V30 47 H 2.7292 2.6106 -3.1574 0
M  V30 48 H 4.2953 1.0388 -2.1331 0
M  V30 49 H 3.0077 -0.0806 -1.6874 0
M  V30 50 H 3.6435 0.7477 -4.5355 0
M  V30 51 H 4.1883 -0.7547 -3.7673 0
M  V30 52 C 3.4771 -2.2677 -2.2343 0
M  V30 53 C 2.8248 -2.3204 -3.6007 0
M  V30 54 C 1.7063 -3.3585 -3.6290 0
M  V30 55 O 0.7720 -2.9961 -2.6830 0
M  V30 56 C -0.3110 -3.8583 -2.5975 0
M  V30 57 C -0.3275 -4.5206 -1.2656 0
M  V30 58 C -1.4783 -5.4770 -1.0951 0
M  V30 59 H 4.2302 -1.4543 -2.2762 0
M  V30 60 H 3.9571 -3.2509 -2.0563 0
M  V30 61 H 2.4099 -1.2902 -3.7624 0
M  V30 62 H 1.3275 -3.4381 -4.6608 0
M  V30 63 H 2.1964 -4.3159 -3.2965 0
M  V30 64 H -0.1268 -4.6550 -3.3555 0
M  V30 65 H 0.6078 -5.0579 -1.0598 0
M  V30 66 H -0.4355 -3.7902 -0.4165 0
M  V30 67 H -1.4339 -6.2233 -1.9281 0
M  V30 68 H -1.4144 -6.0599 -0.1626 0
M  V30 69 C -0.5243 0.8783 6.2549 0
M  V30 70 C -0.8552 1.4023 4.8723 0
M  V30 71 C 0.0692 2.5561 4.4931 0
M  V30 72 O 1.3631 2.0819 4.5116 0
M  V30 73 C 2.3189 3.0318 4.1835 0
M  V30 74 C 3.1977 3.2922 5.3552 0
M  V30 75 C 4.2652 4.3175 5.0772 0
M  V30 76 H -1.1917 0.0098 6.4305 0
M  V30 77 H -0.7277 1.6939 6.9776 0
M  V30 78 H -0.6957 0.5284 4.1867 0
M  V30 79 H -0.2673 2.9732 3.5301 0
M  V30 80 H -0.0482 3.3026 5.3275 0
M  V30 81 H 1.7564 3.9733 3.9822 0
M  V30 82 H 2.6265 3.6113 6.2370 0
M  V30 83 H 3.7611 2.3774 5.6897 0
M  V30 84 H 3.7626 5.2520 4.7209 0
M  V30 85 H 4.8290 4.6022 5.9798 0
M  V30 END ATOM
M  V30 BEGIN BOND
M  V30 1 1 1 2
M  V30 2 1 2 3
M  V30 3 1 3 4
M  V30 4 1 4 5
M  V30 5 1 5 6
M  V30 6 1 6 7
M  V30 7 1 1 8
M  V30 8 1 1 9
M  V30 9 1 2 10
M  V30 10 1 3 11
M  V30 11 1 3 12
M  V30 12 1 5 13
M  V30 13 1 6 14
M  V30 14 1 6 15
M  V30 15 1 7 16
M  V30 16 1 7 17
M  V30 17 1 18 19
M  V30 18 1 19 20
M  V30 19 1 20 21
M  V30 20 1 21 22
M  V30 21 1 22 23
M  V30 22 1 23 24
M  V30 23 1 18 25
M  V30 24 1 18 26
M  V30 25 1 19 27
M  V30 26 1 20 28
M  V30 27 1 20 29
M  V30 28 1 22 30
M  V30 29 1 23 31
M  V30 30 1 23 32
M  V30 31 1 24 33
M  V30 32 1 24 34
M  V30 33 1 35 36
M  V30 34 1 36 37
M  V30 35 1 37 38
M  V30 36 1 38 39
M  V30 37 1 39 40
M  V30 38 1 40 41
M  V30 39 1 35 42
M  V30 40 1 35 43
M  V30 41 1 36 44
M  V30 42 1 37 45
M  V30 43 1 37 46
M  V30 44 1 39 47
M  V30 45 1 40 48
M  V30 46 1 40 49
M  V30 47 1 41 50
M  V30 48 1 41 51
M  V30 49 1 52 53
M  V30 50 1 53 54
M  V30 51 1 54 55
M  V30 52 1 55 56
M  V30 53 1 56 57
M  V30 54 1 57 58
M  V30 55 1 52 59
M  V30 56 1 52 60
M  V30 57 1 53 61
M  V30 58 1 54 62
M  V30 59 1 54 63
M  V30 60 1 56 64
M  V30 61 1 57 65
M  V30 62 1 57 66
M  V30 63 1 58 67
M  V30 64 1 58 68
M  V30 65 1 69 70
M  V30 66 1 70 71
M  V30 67 1 71 72
M  V30 68 1 72 73
M  V30 69 1 73 74
M  V30 70 1 74 75
M  V30 71 1 69 76
M  V30 72 1 69 77
M  V30 73 1 70 78
M  V30 74 1 71 79
M  V30 75 1 71 80
M  V30 76 1 73 81
M  V30 77 1 74 82
M  V30 78 1 74 83
M  V30 79 1 75 84
M  V30 80 1 75 85
M  V30 81 1 18 69
M  V30 82 1 35 73
M  V30 83 1 41 52
M  V30 84 1 22 58
M  V30 85 1 19 70
M  V30 86 1 1 24
M  V30 87 1 36 75
M  V30 88 1 7 39
M  V30 89 1 2 53
M  V30 90 1 5 56
M  V30 END BOND
M  V30 END CTAB
M  END

$$$$
