
     RDKit          3D

  0  0  0  0  0  0  0  0  0  0999 V3000
M  V30 BEGIN CTAB
M  V30 COUNTS 85 90 0 0 0
M  V30 BEGIN ATOM
M  V30 1 C -0.9174 -2.6524 2.8368 0
M  V30 2 C -2.0736 -1.7523 2.4512 0
M  V30 3 C -2.2469 -0.6258 3.4664 0
M  V30 4 O -1.0783 0.1043 3.4881 0
M  V30 5 C -1.0933 1.1705 4.3750 0
M  V30 6 C -0.0892 0.9495 5.4501 0
M  V30 7 C -0.0455 2.0684 6.4573 0
M  V30 8 H -0.8178 -3.4019 2.0251 0
M  V30 9 H -1.1782 -3.1353 3.7999 0
M  V30 10 H -1.7938 -1.3374 1.4468 0
M  V30 11 H -3.1546 -0.0570 3.2076 0
M  V30 12 H -2.3583 -1.1485 4.4572 0
M  V30 13 H -2.0980 1.1509 4.8581 0
M  V30 14 H -0.2564 0.0044 5.9835 0
M  V30 15 H 0.9626 0.8786 5.0567 0
M  V30 16 H -1.0761 2.1990 6.8738 0
M  V30 17 H 0.6028 1.8422 7.3187 0
M  V30 18 C 0.6472 -3.6071 -3.5422 0
M  V30 19 C -0.2258 -4.2981 -2.5146 0
M  V30 20 C 0.4560 -4.3198 -1.1492 0
M  V30 21 O 0.6756 -3.0139 -0.7679 0
M  V30 22 C 1.2950 -2.8809 0.4659 0
M  V30 23 C 2.6378 -2.2639 0.2948 0
M  V30 24 C 3.3769 -2.0865 1.5949 0
M  V30 25 H 0.0614 -3.5770 -4.4838 0
M  V30 26 H 1.5669 -4.2145 -3.6604 0
M  V30 27 H -1.1655 -3.6859 -2.4757 0
M  V30 28 H -0.1615 -4.9163 -0.4583 0
M  V30 29 H 1.4529 -4.8086 -1.3352 0
M  V30 30 H 1.4583 -3.9191 0.8384 0
M  V30 31 H 3.2720 -2.8389 -0.3930 0
M  V30 32 H 2.5900 -1.2312 -0.1494 0
M  V30 33 H 3.4410 -3.0856 2.0953 0
M  V30 34 H 4.4167 -1.7518 1.4526 0
M  V30 35 C -2.3118 2.1351 -3.9467 0
M  V30 36 C -1.1453 3.0677 -3.6915 0
M  V30 37 C -1.1889 3.6148 -2.2673 0
M  V30 38 O -1.1235 2.5435 -1.4029 0
M  V30 39 C -1.1539 2.8954 -0.0617 0
M  V30 40 C -2.3906 2.3658 0.5732 0
M  V30 41 C -2.4976 2.7087 2.0358 0
M  V30 42 H -2.1761 1.7346 -4.9722 0
M  V30 43 H -3.2408 2.7349 -3.8693 0
M  V30 44 H -0.2312 2.4345 -3.8421 0
M  V30 45 H -0.3875 4.3628 -2.1541 0
M  V30 46 H -2.2068 4.0863 -2.1732 0
M  V30 47 H -1.2270 4.0078 -0.0402 0
M  V30 48 H -3.2986 2.7154 0.0641 0
M  V30 49 H -2.4523 1.2429 0.5383 0
M  V30 50 H -2.4243 3.8210 2.1364 0
M  V30 51 H -3.4707 2.4289 2.4697 0
M  V30 52 C 1.8610 3.3275 1.0749 0
M  V30 53 C 2.8150 2.2610 0.5770 0
M  V30 54 C 3.4879 1.5458 1.7455 0
M  V30 55 O 2.4987 0.9633 2.5080 0
M  V30 56 C 2.9697 0.2726 3.6146 0
M  V30 57 C 2.4970 0.9310 4.8619 0
M  V30 58 C 2.9698 0.2373 6.1123 0
M  V30 59 H 1.3702 3.7551 0.1767 0
M  V30 60 H 2.4635 4.0918 1.6057 0
M  V30 61 H 2.1725 1.5476 -0.0040 0
M  V30 62 H 4.2445 0.8526 1.3436 0
M  V30 63 H 3.9639 2.3687 2.3484 0
M  V30 64 H 4.0795 0.3786 3.5903 0
M  V30 65 H 2.7977 1.9860 4.9116 0
M  V30 66 H 1.3753 0.9444 4.9499 0
M  V30 67 H 4.0868 0.1778 6.0733 0
M  V30 68 H 2.7282 0.7984 7.0290 0
M  V30 69 C 0.0504 -3.3428 -4.8700 0
M  V30 70 C 0.9466 -2.1432 -5.1010 0
M  V30 71 C 0.1409 -0.9552 -5.6197 0
M  V30 72 O -0.8112 -0.6469 -4.6723 0
M  V30 73 C -1.6238 0.4238 -5.0139 0
M  V30 74 C -3.0277 -0.0387 -5.1815 0
M  V30 75 C -3.9751 1.0707 -5.5554 0
M  V30 76 H 0.6931 -4.1375 -4.4388 0
M  V30 77 H -0.3590 -3.6471 -5.8542 0
M  V30 78 H 1.3848 -1.9122 -4.0940 0
M  V30 79 H 0.8393 -0.1404 -5.8703 0
M  V30 80 H -0.3829 -1.3438 -6.5372 0
M  V30 81 H -1.2717 0.7664 -6.0149 0
M  V30 82 H -3.1126 -0.8386 -5.9289 0
M  V30 83 H -3.4584 -0.4759 -4.2383 0
M  V30 84 H -3.5863 1.5588 -6.4845 0
M  V30 85 H -4.9837 0.7048 -5.8048 0
M  V30 END ATOM
M  V30 BEGIN BOND
M  V30 1 1 1 2
M  V30 2 1 2 3
M  V30 3 1 3 4
M  V30 4 1 4 5
M  V30 5 1 5 6
M  V30 6 1 6 7
M  V30 7 1 1 8
M  V30 8 1 1 9
M  V30 9 1 2 10
M  V30 10 1 3 11
M  V30 11 1 3 12
M  V30 12 1 5 13
M  V30 13 1 6 14
M  V30 14 1 6 15
M  V30 15 1 7 16
M  V30 16 1 7 17
M  V30 17 1 18 19
M  V30 18 1 19 20
M  V30 19 1 20 21
M  V30 20 1 21 22
M  V30 21 1 22 23
M  V30 22 1 23 24
M  V30 23 1 18 25
M  V30 24 1 18 26
M  V30 25 1 19 27
M  V30 26 1 20 28
M  V30 27 1 20 29
M  V30 28 1 22 30
M  V30 29 1 23 31
M  V30 30 1 23 32
M  V30 31 1 24 33
M  V30 32 1 24 34
M  V30 33 1 35 36
M  V30 34 1 36 37
M  V30 35 1 37 38
M  V30 36 1 38 39
M  V30 37 1 39 40
M  V30 38 1 40 41
M  V30 39 1 35 42
M  V30 40 1 35 43
M  V30 41 1 36 44
M  V30 42 1 37 45
M  V30 43 1 37 46
M  V30 44 1 39 47
M  V30 45 1 40 48
M  V30 46 1 40 49
M  V30 47 1 41 50
M  V30 48 1 41 51
M  V30 49 1 52 53
M  V30 50 1 53 54
M  V30 51 1 54 55
M  V30 52 1 55 56
M  V30 53 1 56 57
M  V30 54 1 57 58
M  V30 55 1 52 59
M  V30 56 1 52 60
M  V30 57 1 53 61
M  V30 58 1 54 62
M  V30 59 1 54 63
M  V30 60 1 56 64
M  V30 61 1 57 65
M  V30 62 1 57 66
M  V30 63 1 58 67
M  V30 64 1 58 68
M  V30 65 1 69 70
M  V30 66 1 70 71
M  V30 67 1 71 72
M  V30 68 1 72 73
M  V30 69 1 73 74
M  V30 70 1 74 75
M  V30 71 1 69 76
M  V30 72 1 69 77
M  V30 73 1 70 78
M  V30 74 1 71 79
M  V30 75 1 71 80
M  V30 76 1 73 81
M  V30 77 1 74 82
M  V30 78 1 74 83
M  V30 79 1 75 84
M  V30 80 1 75 85
M  V30 81 1 18 69
M  V30 82 1 35 73
M  V30 83 1 39 52
M  V30 84 1 24 53
M  V30 85 1 19 70
M  V30 86 1 1 22
M  V30 87 1 36 75
M  V30 88 1 2 41
M  V30 89 1 5 56
M  V30 90 1 7 58
M  V30 END BOND
M  V30 END CTAB
M  END

$$$$
