
     RDKit          3D

  0  0  0  0  0  0  0  0  0  0999 V3000
M  V30 BEGIN CTAB
M  V30 COUNTS 85 90 0 0 0
M  V30 BEGIN ATOM
M  V30 1 C 2.5027 0.8089 1.0807 0
M  V30 2 C 2.5966 0.6343 -0.4214 0
M  V30 3 C 1.7627 -0.5578 -0.8828 0
M  V30 4 O 0.4535 -0.3190 -0.5250 0
M  V30 5 C -0.4253 -1.3297 -0.8852 0
M  V30 6 C -0.9981 -1.9616 0.3336 0
M  V30 7 C -1.9652 -3.0738 0.0241 0
M  V30 8 H 3.0796 1.7235 1.3280 0
M  V30 9 H 2.9531 -0.0891 1.5491 0
M  V30 10 H 2.1894 1.5887 -0.8489 0
M  V30 11 H 1.9374 -0.7122 -1.9600 0
M  V30 12 H 2.1447 -1.4258 -0.2763 0
M  V30 13 H 0.1940 -2.1049 -1.3940 0
M  V30 14 H -0.2188 -2.3509 1.0021 0
M  V30 15 H -1.5868 -1.2389 0.9639 0
M  V30 16 H -1.4377 -3.8212 -0.6207 0
M  V30 17 H -2.2863 -3.6228 0.9235 0
M  V30 18 C 2.3775 -1.5285 0.2276 0
M  V30 19 C 1.7547 -1.2812 1.5864 0
M  V30 20 C 1.1923 0.1348 1.6766 0
M  V30 21 O 0.2337 0.2699 0.6959 0
M  V30 22 C -0.3677 1.5191 0.6603 0
M  V30 23 C -0.0414 2.2024 -0.6202 0
M  V30 24 C -0.6599 3.5708 -0.7345 0
M  V30 25 H 2.7044 -2.5885 0.2193 0
M  V30 26 H 3.2412 -0.8409 0.1270 0
M  V30 27 H 0.9303 -2.0382 1.6681 0
M  V30 28 H 0.8418 0.3080 2.7070 0
M  V30 29 H 2.0605 0.8040 1.4202 0
M  V30 30 H 0.1096 2.1105 1.4762 0
M  V30 31 H 1.0418 2.2934 -0.7754 0
M  V30 32 H -0.4177 1.6431 -1.5212 0
M  V30 33 H -0.3334 4.1727 0.1509 0
M  V30 34 H -0.3120 4.1237 -1.6215 0
M  V30 35 C 0.7440 0.3533 2.6896 0
M  V30 36 C 1.1007 -1.0386 2.2093 0
M  V30 37 C 0.0333 -1.5757 1.2597 0
M  V30 38 O -0.0415 -0.7188 0.1830 0
M  V30 39 C -0.9800 -1.0869 -0.7695 0
M  V30 40 C -2.0571 -0.0633 -0.8416 0
M  V30 41 C -3.1192 -0.3933 -1.8570 0
M  V30 42 H 1.5904 0.6955 3.3197 0
M  V30 43 H -0.1901 0.2723 3.2811 0
M  V30 44 H 2.0792 -0.9170 1.6734 0
M  V30 45 H 0.2764 -2.6223 1.0145 0
M  V30 46 H -0.9286 -1.5026 1.8400 0
M  V30 47 H -1.4472 -2.0255 -0.3901 0
M  V30 48 H -2.5403 0.0971 0.1313 0
M  V30 49 H -1.6757 0.9504 -1.1470 0
M  V30 50 H -3.5270 -1.4069 -1.6138 0
M  V30 51 H -3.9775 0.2961 -1.8164 0
M  V30 52 C -1.7098 2.0572 -0.7207 0
M  V30 53 C -2.3352 0.6947 -0.9396 0
M  V30 54 C -1.3022 -0.2992 -1.4638 0
M  V30 55 O -0.2975 -0.3957 -0.5255 0
M  V30 56 C 0.7192 -1.2726 -0.8729 0
M  V30 57 C 1.9924 -0.5254 -1.0561 0
M  V30 58 C 3.1487 -1.4119 -1.4371 0
M  V30 59 H -2.5014 2.7006 -0.2849 0
M  V30 60 H -1.3832 2.4365 -1.7098 0
M  V30 61 H -2.7052 0.3811 0.0724 0
M  V30 62 H -1.8156 -1.2440 -1.7052 0
M  V30 63 H -0.8809 0.1869 -2.3876 0
M  V30 64 H 0.4377 -1.6862 -1.8694 0
M  V30 65 H 1.8997 0.2711 -1.8063 0
M  V30 66 H 2.3304 -0.0030 -0.1185 0
M  V30 67 H 2.8627 -1.9752 -2.3610 0
M  V30 68 H 4.0551 -0.8428 -1.6978 0
M  V30 69 C -0.7804 0.7163 -2.5614 0
M  V30 70 C 0.1358 1.7721 -1.9770 0
M  V30 71 C -0.1266 1.9531 -0.4843 0
M  V30 72 O 0.1067 0.7435 0.1334 0
M  V30 73 C -0.0948 0.7604 1.5055 0
M  V30 74 C -1.2301 -0.1324 1.8620 0
M  V30 75 C -1.5129 -0.1673 3.3409 0
M  V30 76 H -0.4885 0.6001 -3.6252 0
M  V30 77 H -1.8202 1.0894 -2.4686 0
M  V30 78 H 1.1735 1.3813 -2.1497 0
M  V30 79 H 0.4842 2.7950 -0.1204 0
M  V30 80 H -1.2264 2.1827 -0.4132 0
M  V30 81 H -0.4078 1.8011 1.7548 0
M  V30 82 H -2.1533 0.1430 1.3352 0
M  V30 83 H -1.0452 -1.2063 1.5816 0
M  V30 84 H -1.6888 0.8834 3.6841 0
M  V30 85 H -2.4310 -0.7241 3.5869 0
M  V30 END ATOM
M  V30 BEGIN BOND
M  V30 1 1 1 2
M  V30 2 1 2 3
M  V30 3 1 3 4
M  V30 4 1 4 5
M  V30 5 1 5 6
M  V30 6 1 6 7
M  V30 7 1 1 8
M  V30 8 1 1 9
M  V30 9 1 2 10
M  V30 10 1 3 11
M  V30 11 1 3 12
M  V30 12 1 5 13
M  V30 13 1 6 14
M  V30 14 1 6 15
M  V30 15 1 7 16
M  V30 16 1 7 17
M  V30 17 1 18 19
M  V30 18 1 19 20
M  V30 19 1 20 21
M  V30 20 1 21 22
M  V30 21 1 22 23
M  V30 22 1 23 24
M  V30 23 1 18 25
M  V30 24 1 18 26
M  V30 25 1 19 27
M  V30 26 1 20 28
M  V30 27 1 20 29
M  V30 28 1 22 30
M  V30 29 1 23 31
M  V30 30 1 23 32
M  V30 31 1 24 33
M  V30 32 1 24 34
M  V30 33 1 35 36
M  V30 34 1 36 37
M  V30 35 1 37 38
M  V30 36 1 38 39
M  V30 37 1 39 40
M  V30 38 1 40 41
M  V30 39 1 35 42
M  V30 40 1 35 43
M  V30 41 1 36 44
M  V30 42 1 37 45
M  V30 43 1 37 46
M  V30 44 1 39 47
M  V30 45 1 40 48
M  V30 46 1 40 49
M  V30 47 1 41 50
M  V30 48 1 41 51
M  V30 49 1 52 53
M  V30 50 1 53 54
M  V30 51 1 54 55
M  V30 52 1 55 56
M  V30 53 1 56 57
M  V30 54 1 57 58
M  V30 55 1 52 59
M  V30 56 1 52 60
M  V30 57 1 53 61
M  V30 58 1 54 62
M  V30 59 1 54 63
M  V30 60 1 56 64
M  V30 61 1 57 65
M  V30 62 1 57 66
M  V30 63 1 58 67
M  V30 64 1 58 68
M  V30 65 1 69 70
M  V30 66 1 70 71
M  V30 67 1 71 72
M  V30 68 1 72 73
M  V30 69 1 73 74
M  V30 70 1 74 75
M  V30 71 1 69 76
M  V30 72 1 69 77
M  V30 73 1 70 78
M  V30 74 1 71 79
M  V30 75 1 71 80
M  V30 76 1 73 81
M  V30 77 1 74 82
M  V30 78 1 74 83
M  V30 79 1 75 84
M  V30 80 1 75 85
M  V30 81 1 1 18
M  V30 82 1 19 35
M  V30 83 1 5 36
M  V30 84 1 52 69
M  V30 85 1 2 56
M  V30 86 1 7 75
M  V30 87 1 22 70
M  V30 88 1 41 73
M  V30 89 1 24 58
M  V30 90 1 39 53
M  V30 END BOND
M  V30 END CTAB
M  END

$$$$
