
     RDKit          3D

  0  0  0  0  0  0  0  0  0  0999 V3000
M  V30 BEGIN CTAB
M  V30 COUNTS 85 90 0 0 0
M  V30 BEGIN ATOM
M  V30 1 C 2.1287 1.0318 1.7512 0
M  V30 2 C 1.4467 2.2260 1.1154 0
M  V30 3 C 0.9031 1.8694 -0.2655 0
M  V30 4 O -0.0062 0.8458 -0.1082 0
M  V30 5 C -0.5855 0.4161 -1.2928 0
M  V30 6 C -0.1885 -0.9906 -1.5699 0
M  V30 7 C -0.7793 -1.5312 -2.8454 0
M  V30 8 H 2.4388 1.3506 2.7674 0
M  V30 9 H 3.0069 0.7771 1.1245 0
M  V30 10 H 0.6074 2.4848 1.8140 0
M  V30 11 H 0.5073 2.7851 -0.7339 0
M  V30 12 H 1.7927 1.4715 -0.8290 0
M  V30 13 H -0.1378 1.0456 -2.0969 0
M  V30 14 H 0.9021 -1.1117 -1.6100 0
M  V30 15 H -0.5308 -1.7057 -0.7715 0
M  V30 16 H -0.4854 -0.8460 -3.6801 0
M  V30 17 H -0.3814 -2.5229 -3.1133 0
M  V30 18 C -2.2283 1.0318 1.7512 0
M  V30 19 C -2.4684 -0.2682 1.0111 0
M  V30 20 C -1.7862 -0.2500 -0.3542 0
M  V30 21 O -0.4348 -0.0775 -0.1468 0
M  V30 22 C 0.3167 -0.0414 -1.3119 0
M  V30 23 C 0.9363 1.3013 -1.4740 0
M  V30 24 C 1.7709 1.4205 -2.7219 0
M  V30 25 H -2.6986 0.9173 2.7493 0
M  V30 26 H -2.7132 1.8409 1.1690 0
M  V30 27 H -2.0178 -1.0605 1.6657 0
M  V30 28 H -2.0675 -1.1657 -0.8991 0
M  V30 29 H -2.1885 0.6704 -0.8625 0
M  V30 30 H -0.4105 -0.1680 -2.1476 0
M  V30 31 H 0.1873 2.1043 -1.4755 0
M  V30 32 H 1.6392 1.5615 -0.6348 0
M  V30 33 H 1.1252 1.1541 -3.5965 0
M  V30 34 H 2.1200 2.4491 -2.9053 0
M  V30 35 C -1.3008 0.1903 2.6701 0
M  V30 36 C -0.3483 1.3657 2.5883 0
M  V30 37 C 0.8783 1.0135 1.7510 0
M  V30 38 O 0.4430 0.6807 0.4865 0
M  V30 39 C 1.4608 0.3351 -0.3899 0
M  V30 40 C 1.3253 -1.0923 -0.7863 0
M  V30 41 C 2.3989 -1.5454 -1.7404 0
M  V30 42 H -2.1869 0.5421 3.2372 0
M  V30 43 H -0.7776 -0.6256 3.2081 0
M  V30 44 H -0.9396 2.1826 2.0960 0
M  V30 45 H 1.5895 1.8539 1.7999 0
M  V30 46 H 1.3002 0.0897 2.2367 0
M  V30 47 H 2.4075 0.4232 0.1925 0
M  V30 48 H 1.3226 -1.7638 0.0825 0
M  V30 49 H 0.3591 -1.3065 -1.3217 0
M  V30 50 H 3.3918 -1.3398 -1.2664 0
M  V30 51 H 2.3723 -2.6304 -1.9290 0
M  V30 52 C -1.9339 -0.1438 -1.9999 0
M  V30 53 C -2.3918 -0.9372 -0.7931 0
M  V30 54 C -1.2155 -1.6550 -0.1368 0
M  V30 55 O -0.3049 -0.6980 0.2560 0
M  V30 56 C 0.8257 -1.2119 0.8734 0
M  V30 57 C 2.0277 -0.9329 0.0426 0
M  V30 58 C 3.3008 -1.4629 0.6481 0
M  V30 59 H -2.8266 0.3933 -2.3808 0
M  V30 60 H -1.5505 -0.8667 -2.7478 0
M  V30 61 H -2.8270 -0.1744 -0.0945 0
M  V30 62 H -1.6029 -2.2979 0.6702 0
M  V30 63 H -0.7559 -2.2655 -0.9634 0
M  V30 64 H 0.6888 -2.3184 0.8876 0
M  V30 65 H 1.9295 -1.3354 -0.9743 0
M  V30 66 H 2.2152 0.1677 -0.0976 0
M  V30 67 H 3.1675 -2.5595 0.8284 0
M  V30 68 H 4.1658 -1.3700 -0.0276 0
M  V30 69 C 1.2012 0.1903 2.6701 0
M  V30 70 C 0.8615 -1.1826 2.1270 0
M  V30 71 C -0.4572 -1.1519 1.3590 0
M  V30 72 O -0.3158 -0.2626 0.3158 0
M  V30 73 C -1.4480 -0.1323 -0.4745 0
M  V30 74 C -1.9880 1.2493 -0.3624 0
M  V30 75 C -3.2237 1.4704 -1.1945 0
M  V30 76 H 2.1938 0.0994 3.1571 0
M  V30 77 H 0.4166 0.4613 3.4048 0
M  V30 78 H 1.7110 -1.4397 1.4402 0
M  V30 79 H -0.7185 -2.1825 1.0692 0
M  V30 80 H -1.2030 -0.7289 2.0885 0
M  V30 81 H -2.2090 -0.8167 -0.0319 0
M  V30 82 H -2.2123 1.5220 0.6773 0
M  V30 83 H -1.2614 2.0317 -0.7174 0
M  V30 84 H -3.9828 0.7038 -0.8965 0
M  V30 85 H -3.6933 2.4495 -1.0094 0
M  V30 END ATOM
M  V30 BEGIN BOND
M  V30 1 1 1 2
M  V30 2 1 2 3
M  V30 3 1 3 4
M  V30 4 1 4 5
M  V30 5 1 5 6
M  V30 6 1 6 7
M  V30 7 1 1 8
M  V30 8 1 1 9
M  V30 9 1 2 10
M  V30 10 1 3 11
M  V30 11 1 3 12
M  V30 12 1 5 13
M  V30 13 1 6 14
M  V30 14 1 6 15
M  V30 15 1 7 16
M  V30 16 1 7 17
M  V30 17 1 18 19
M  V30 18 1 19 20
M  V30 19 1 20 21
M  V30 20 1 21 22
M  V30 21 1 22 23
M  V30 22 1 23 24
M  V30 23 1 18 25
M  V30 24 1 18 26
M  V30 25 1 19 27
M  V30 26 1 20 28
M  V30 27 1 20 29
M  V30 28 1 22 30
M  V30 29 1 23 31
M  V30 30 1 23 32
M  V30 31 1 24 33
M  V30 32 1 24 34
M  V30 33 1 35 36
M  V30 34 1 36 37
M  V30 35 1 37 38
M  V30 36 1 38 39
M  V30 37 1 39 40
M  V30 38 1 40 41
M  V30 39 1 35 42
M  V30 40 1 35 43
M  V30 41 1 36 44
M  V30 42 1 37 45
M  V30 43 1 37 46
M  V30 44 1 39 47
M  V30 45 1 40 48
M  V30 46 1 40 49
M  V30 47 1 41 50
M  V30 48 1 41 51
M  V30 49 1 52 53
M  V30 50 1 53 54
M  V30 51 1 54 55
M  V30 52 1 55 56
M  V30 53 1 56 57
M  V30 54 1 57 58
M  V30 55 1 52 59
M  V30 56 1 52 60
M  V30 57 1 53 61
M  V30 58 1 54 62
M  V30 59 1 54 63
M  V30 60 1 56 64
M  V30 61 1 57 65
M  V30 62 1 57 66
M  V30 63 1 58 67
M  V30 64 1 58 68
M  V30 65 1 69 70
M  V30 66 1 70 71
M  V30 67 1 71 72
M  V30 68 1 72 73
M  V30 69 1 73 74
M  V30 70 1 74 75
M  V30 71 1 69 76
M  V30 72 1 69 77
M  V30 73 1 70 78
M  V30 74 1 71 79
M  V30 75 1 71 80
M  V30 76 1 73 81
M  V30 77 1 74 82
M  V30 78 1 74 83
M  V30 79 1 75 84
M  V30 80 1 75 85
M  V30 81 1 35 69
M  V30 82 1 18 73
M  V30 83 1 22 52
M  V30 84 1 1 36
M  V30 85 1 53 70
M  V30 86 1 7 58
M  V30 87 1 19 75
M  V30 88 1 41 56
M  V30 89 1 5 24
M  V30 90 1 2 39
M  V30 END BOND
M  V30 END CTAB
M  END

$$$$
