
     RDKit          3D

  0  0  0  0  0  0  0  0  0  0999 V3000
M  V30 BEGIN CTAB
M  V30 COUNTS 85 90 0 0 0
M  V30 BEGIN ATOM
M  V30 1 C 6.3831 -1.2183 -3.7899 0
M  V30 2 C 5.3589 -1.9376 -4.6438 0
M  V30 3 C 4.8567 -3.1976 -3.9438 0
M  V30 4 O 4.2801 -2.8152 -2.7520 0
M  V30 5 C 3.7756 -3.8682 -2.0036 0
M  V30 6 C 4.5324 -3.9923 -0.7289 0
M  V30 7 C 4.0426 -5.1190 0.1422 0
M  V30 8 H 6.6508 -0.2898 -4.3346 0
M  V30 9 H 7.2593 -1.8892 -3.6847 0
M  V30 10 H 4.5232 -1.2002 -4.7746 0
M  V30 11 H 4.1944 -3.7428 -4.6356 0
M  V30 12 H 5.7876 -3.7881 -3.7155 0
M  V30 13 H 3.9820 -4.7897 -2.5964 0
M  V30 14 H 5.6092 -4.1238 -0.8991 0
M  V30 15 H 4.4506 -3.0753 -0.0820 0
M  V30 16 H 4.0842 -6.0630 -0.4577 0
M  V30 17 H 4.6850 -5.2897 1.0206 0
M  V30 18 C -2.5790 -1.8546 6.8556 0
M  V30 19 C -1.1845 -2.3779 7.1331 0
M  V30 20 C -0.8728 -3.5861 6.2541 0
M  V30 21 O -0.9639 -3.1843 4.9391 0
M  V30 22 C -0.7031 -4.1900 4.0204 0
M  V30 23 C -1.9278 -4.4831 3.2285 0
M  V30 24 C -1.7245 -5.5697 2.2057 0
M  V30 25 H -2.7056 -0.9482 7.4824 0
M  V30 26 H -3.2964 -2.6479 7.1469 0
M  V30 27 H -0.5008 -1.5234 6.8845 0
M  V30 28 H 0.1043 -3.9968 6.5561 0
M  V30 29 H -1.7062 -4.3137 6.4624 0
M  V30 30 H -0.4780 -5.1014 4.6220 0
M  V30 31 H -2.7771 -4.7582 3.8678 0
M  V30 32 H -2.2862 -3.5965 2.6354 0
M  V30 33 H -1.3482 -6.4795 2.7380 0
M  V30 34 H -2.6620 -5.8731 1.7132 0
M  V30 35 C 1.9497 5.6222 -1.7568 0
M  V30 36 C 1.2237 5.2732 -3.0400 0
M  V30 37 C 2.2052 4.7942 -4.1063 0
M  V30 38 O 2.8452 3.6761 -3.6170 0
M  V30 39 C 3.7746 3.1288 -4.4889 0
M  V30 40 C 5.1399 3.2385 -3.9084 0
M  V30 41 C 6.2093 2.6646 -4.8001 0
M  V30 42 H 1.1692 5.8994 -1.0190 0
M  V30 43 H 2.6186 6.4789 -1.9751 0
M  V30 44 H 0.5170 4.4488 -2.7567 0
M  V30 45 H 1.6545 4.6485 -5.0498 0
M  V30 46 H 2.9590 5.6255 -4.1950 0
M  V30 47 H 3.7547 3.7726 -5.3991 0
M  V30 48 H 5.4043 4.2768 -3.6679 0
M  V30 49 H 5.2474 2.6793 -2.9379 0
M  V30 50 H 6.1401 3.1736 -5.7946 0
M  V30 51 H 7.2271 2.8632 -4.4284 0
M  V30 52 C -4.2790 -2.6453 -0.9554 0
M  V30 53 C -3.4864 -3.3005 -2.0681 0
M  V30 54 C -3.3401 -2.3571 -3.2589 0
M  V30 55 O -2.6806 -1.2284 -2.8228 0
M  V30 56 C -2.4764 -0.2752 -3.8094 0
M  V30 57 C -3.2374 0.9611 -3.4848 0
M  V30 58 C -3.0670 2.0475 -4.5138 0
M  V30 59 H -4.2882 -3.3637 -0.1102 0
M  V30 60 H -5.3030 -2.4628 -1.3388 0
M  V30 61 H -2.4835 -3.5224 -1.6160 0
M  V30 62 H -2.8492 -2.9032 -4.0808 0
M  V30 63 H -4.3950 -2.0711 -3.5284 0
M  V30 64 H -2.9233 -0.6985 -4.7391 0
M  V30 65 H -4.3102 0.7644 -3.3575 0
M  V30 66 H -2.9117 1.4321 -2.5162 0
M  V30 67 H -3.3612 1.6297 -5.5096 0
M  V30 68 H -3.7307 2.9091 -4.3389 0
M  V30 69 C -1.6864 5.3652 2.6230 0
M  V30 70 C -1.3133 5.3104 4.0904 0
M  V30 71 C -2.4223 4.6546 4.9087 0
M  V30 72 O -2.5999 3.3755 4.4276 0
M  V30 73 C -3.5866 2.6554 5.0844 0
M  V30 74 C -4.7020 2.3533 4.1475 0
M  V30 75 C -5.8176 1.5711 4.7893 0
M  V30 76 H -0.8123 5.7943 2.0917 0
M  V30 77 H -2.5751 6.0212 2.5296 0
M  V30 78 H -0.3781 4.6913 4.1274 0
M  V30 79 H -2.1590 4.7254 5.9765 0
M  V30 80 H -3.3449 5.2549 4.6726 0
M  V30 81 H -3.9934 3.3388 5.8659 0
M  V30 82 H -5.1241 3.2632 3.7007 0
M  V30 83 H -4.3785 1.7236 3.2729 0
M  V30 84 H -6.1715 2.1438 5.6834 0
M  V30 85 H -6.6952 1.4622 4.1325 0
M  V30 END ATOM
M  V30 BEGIN BOND
M  V30 1 1 1 2
M  V30 2 1 2 3
M  V30 3 1 3 4
M  V30 4 1 4 5
M  V30 5 1 5 6
M  V30 6 1 6 7
M  V30 7 1 1 8
M  V30 8 1 1 9
M  V30 9 1 2 10
M  V30 10 1 3 11
M  V30 11 1 3 12
M  V30 12 1 5 13
M  V30 13 1 6 14
M  V30 14 1 6 15
M  V30 15 1 7 16
M  V30 16 1 7 17
M  V30 17 1 18 19
M  V30 18 1 19 20
M  V30 19 1 20 21
M  V30 20 1 21 22
M  V30 21 1 22 23
M  V30 22 1 23 24
M  V30 23 1 18 25
M  V30 24 1 18 26
M  V30 25 1 19 27
M  V30 26 1 20 28
M  V30 27 1 20 29
M  V30 28 1 22 30
M  V30 29 1 23 31
M  V30 30 1 23 32
M  V30 31 1 24 33
M  V30 32 1 24 34
M  V30 33 1 35 36
M  V30 34 1 36 37
M  V30 35 1 37 38
M  V30 36 1 38 39
M  V30 37 1 39 40
M  V30 38 1 40 41
M  V30 39 1 35 42
M  V30 40 1 35 43
M  V30 41 1 36 44
M  V30 42 1 37 45
M  V30 43 1 37 46
M  V30 44 1 39 47
M  V30 45 1 40 48
M  V30 46 1 40 49
M  V30 47 1 41 50
M  V30 48 1 41 51
M  V30 49 1 52 53
M  V30 50 1 53 54
M  V30 51 1 54 55
M  V30 52 1 55 56
M  V30 53 1 56 57
M  V30 54 1 57 58
M  V30 55 1 52 59
M  V30 56 1 52 60
M  V30 57 1 53 61
M  V30 58 1 54 62
M  V30 59 1 54 63
M  V30 60 1 56 64
M  V30 61 1 57 65
M  V30 62 1 57 66
M  V30 63 1 58 67
M  V30 64 1 58 68
M  V30 65 1 69 70
M  V30 66 1 70 71
M  V30 67 1 71 72
M  V30 68 1 72 73
M  V30 69 1 73 74
M  V30 70 1 74 75
M  V30 71 1 69 76
M  V30 72 1 69 77
M  V30 73 1 70 78
M  V30 74 1 71 79
M  V30 75 1 71 80
M  V30 76 1 73 81
M  V30 77 1 74 82
M  V30 78 1 74 83
M  V30 79 1 75 84
M  V30 80 1 75 85
M  V30 81 1 35 69
M  V30 82 1 18 70
M  V30 83 1 24 52
M  V30 84 1 1 39
M  V30 85 1 58 75
M  V30 86 1 5 53
M  V30 87 1 19 73
M  V30 88 1 36 56
M  V30 89 1 7 22
M  V30 90 1 2 41
M  V30 END BOND
M  V30 END CTAB
M  END

$$$$
