
     RDKit          3D

  0  0  0  0  0  0  0  0  0  0999 V3000
M  V30 BEGIN CTAB
M  V30 COUNTS 85 90 0 0 0
M  V30 BEGIN ATOM
M  V30 1 C -0.0060 2.9592 -2.5607 0
M  V30 2 C -1.3819 2.3878 -2.2847 0
M  V30 3 C -1.8047 1.4295 -3.3949 0
M  V30 4 O -0.8802 0.4087 -3.4440 0
M  V30 5 C -1.1409 -0.5449 -4.4168 0
M  V30 6 C -0.0617 -0.5325 -5.4407 0
M  V30 7 C -0.2744 -1.5440 -6.5360 0
M  V30 8 H 0.2534 3.5913 -1.6868 0
M  V30 9 H -0.0762 3.5637 -3.4872 0
M  V30 10 H -1.2770 1.8403 -1.3108 0
M  V30 11 H -2.8451 1.1162 -3.2105 0
M  V30 12 H -1.7191 2.0329 -4.3414 0
M  V30 13 H -2.0764 -0.2138 -4.9252 0
M  V30 14 H 0.0624 0.4581 -5.8979 0
M  V30 15 H 0.9483 -0.7833 -5.0129 0
M  V30 16 H -1.2791 -1.3545 -6.9912 0
M  V30 17 H 0.4537 -1.4439 -7.3567 0
M  V30 18 C 1.4324 2.9786 3.9001 0
M  V30 19 C 0.8361 3.9535 2.9054 0
M  V30 20 C 1.5601 3.8720 1.5642 0
M  V30 21 O 1.4241 2.5851 1.0904 0
M  V30 22 C 2.0390 2.3643 -0.1330 0
M  V30 23 C 3.1468 1.3843 0.0261 0
M  V30 24 C 3.8671 1.0916 -1.2637 0
M  V30 25 H 0.8181 3.0530 4.8208 0
M  V30 26 H 2.4785 3.2933 4.0886 0
M  V30 27 H -0.2342 3.6347 2.7950 0
M  V30 28 H 1.1666 4.6624 0.9046 0
M  V30 29 H 2.6439 4.0469 1.8133 0
M  V30 30 H 2.5028 3.3366 -0.4209 0
M  V30 31 H 3.8832 1.7109 0.7723 0
M  V30 32 H 2.7919 0.3800 0.3888 0
M  V30 33 H 4.2308 2.0629 -1.6846 0
M  V30 34 H 4.7643 0.4689 -1.1198 0
M  V30 35 C -2.9423 -1.6222 3.7892 0
M  V30 36 C -2.0718 -2.8268 3.4947 0
M  V30 37 C -2.1995 -3.2446 2.0323 0
M  V30 38 O -1.7973 -2.1807 1.2542 0
M  V30 39 C -1.8618 -2.4209 -0.1103 0
M  V30 40 C -2.8704 -1.5239 -0.7356 0
M  V30 41 C -3.0002 -1.7259 -2.2224 0
M  V30 42 H -2.7484 -1.3444 4.8456 0
M  V30 43 H -3.9971 -1.9296 3.6417 0
M  V30 44 H -1.0253 -2.4880 3.7174 0
M  V30 45 H -1.6341 -4.1789 1.8838 0
M  V30 46 H -3.3029 -3.4030 1.8756 0
M  V30 47 H -2.2413 -3.4638 -0.2185 0
M  V30 48 H -3.8627 -1.6362 -0.2789 0
M  V30 49 H -2.6179 -0.4338 -0.6168 0
M  V30 50 H -3.2355 -2.8047 -2.4055 0
M  V30 51 H -3.8351 -1.1554 -2.6594 0
M  V30 52 C 0.9285 -3.6399 -1.1864 0
M  V30 53 C 2.1200 -2.9141 -0.5956 0
M  V30 54 C 3.0131 -2.3498 -1.6971 0
M  V30 55 O 2.2575 -1.4704 -2.4420 0
M  V30 56 C 2.9476 -0.8765 -3.4882 0
M  V30 57 C 2.3626 -1.3028 -4.7878 0
M  V30 58 C 3.0612 -0.6982 -5.9773 0
M  V30 59 H 0.3012 -3.9640 -0.3308 0
M  V30 60 H 1.3161 -4.5104 -1.7529 0
M  V30 61 H 1.6777 -2.0841 0.0166 0
M  V30 62 H 3.9153 -1.9208 -1.2317 0
M  V30 63 H 3.2661 -3.2367 -2.3425 0
M  V30 64 H 3.9820 -1.2904 -3.4449 0
M  V30 65 H 2.3598 -2.3950 -4.9011 0
M  V30 66 H 1.2861 -0.9962 -4.9031 0
M  V30 67 H 4.1480 -0.9564 -5.9079 0
M  V30 68 H 2.7114 -1.1151 -6.9351 0
M  V30 69 C 0.8509 2.7692 5.2521 0
M  V30 70 C 0.1845 2.4476 6.5742 0
M  V30 71 C -1.1189 1.6845 6.3542 0
M  V30 72 O -0.8149 0.5149 5.6918 0
M  V30 73 C -1.9150 -0.2858 5.4230 0
M  V30 74 C -2.1179 -0.3912 3.9531 0
M  V30 75 C -3.2993 -1.2473 3.5793 0
M  V30 76 H 1.8130 3.2642 5.4966 0
M  V30 77 H 0.1771 3.4525 4.6971 0
M  V30 78 H 0.9264 1.8094 7.1236 0
M  V30 79 H -1.6208 1.5596 7.3274 0
M  V30 80 H -1.7201 2.3390 5.6631 0
M  V30 81 H -2.7963 0.2586 5.8356 0
M  V30 82 H -2.2352 0.5931 3.4807 0
M  V30 83 H -1.2443 -0.8644 3.4249 0
M  V30 84 H -4.2030 -0.8329 4.0934 0
M  V30 85 H -3.5238 -1.2177 2.5012 0
M  V30 END ATOM
M  V30 BEGIN BOND
M  V30 1 1 1 2
M  V30 2 1 2 3
M  V30 3 1 3 4
M  V30 4 1 4 5
M  V30 5 1 5 6
M  V30 6 1 6 7
M  V30 7 1 1 8
M  V30 8 1 1 9
M  V30 9 1 2 10
M  V30 10 1 3 11
M  V30 11 1 3 12
M  V30 12 1 5 13
M  V30 13 1 6 14
M  V30 14 1 6 15
M  V30 15 1 7 16
M  V30 16 1 7 17
M  V30 17 1 18 19
M  V30 18 1 19 20
M  V30 19 1 20 21
M  V30 20 1 21 22
M  V30 21 1 22 23
M  V30 22 1 23 24
M  V30 23 1 18 25
M  V30 24 1 18 26
M  V30 25 1 19 27
M  V30 26 1 20 28
M  V30 27 1 20 29
M  V30 28 1 22 30
M  V30 29 1 23 31
M  V30 30 1 23 32
M  V30 31 1 24 33
M  V30 32 1 24 34
M  V30 33 1 35 36
M  V30 34 1 36 37
M  V30 35 1 37 38
M  V30 36 1 38 39
M  V30 37 1 39 40
M  V30 38 1 40 41
M  V30 39 1 35 42
M  V30 40 1 35 43
M  V30 41 1 36 44
M  V30 42 1 37 45
M  V30 43 1 37 46
M  V30 44 1 39 47
M  V30 45 1 40 48
M  V30 46 1 40 49
M  V30 47 1 41 50
M  V30 48 1 41 51
M  V30 49 1 52 53
M  V30 50 1 53 54
M  V30 51 1 54 55
M  V30 52 1 55 56
M  V30 53 1 56 57
M  V30 54 1 57 58
M  V30 55 1 52 59
M  V30 56 1 52 60
M  V30 57 1 53 61
M  V30 58 1 54 62
M  V30 59 1 54 63
M  V30 60 1 56 64
M  V30 61 1 57 65
M  V30 62 1 57 66
M  V30 63 1 58 67
M  V30 64 1 58 68
M  V30 65 1 69 70
M  V30 66 1 70 71
M  V30 67 1 71 72
M  V30 68 1 72 73
M  V30 69 1 73 74
M  V30 70 1 74 75
M  V30 71 1 69 76
M  V30 72 1 69 77
M  V30 73 1 70 78
M  V30 74 1 71 79
M  V30 75 1 71 80
M  V30 76 1 73 81
M  V30 77 1 74 82
M  V30 78 1 74 83
M  V30 79 1 75 84
M  V30 80 1 75 85
M  V30 81 1 18 69
M  V30 82 1 35 73
M  V30 83 1 39 52
M  V30 84 1 24 53
M  V30 85 1 19 70
M  V30 86 1 1 22
M  V30 87 1 36 75
M  V30 88 1 2 41
M  V30 89 1 5 56
M  V30 90 1 7 58
M  V30 END BOND
M  V30 END CTAB
M  END

$$$$
