
     RDKit          3D

  0  0  0  0  0  0  0  0  0  0999 V3000
M  V30 BEGIN CTAB
M  V30 COUNTS 85 90 0 0 0
M  V30 BEGIN ATOM
M  V30 1 C -0.7605 0.2512 -3.2391 0
M  V30 2 C 0.3991 1.0267 -2.6480 0
M  V30 3 C 0.1486 1.3397 -1.1753 0
M  V30 4 O 0.0045 0.1419 -0.5092 0
M  V30 5 C -0.2306 0.2753 0.8511 0
M  V30 6 C -1.5855 -0.2407 1.1843 0
M  V30 7 C -1.9168 -0.1292 2.6492 0
M  V30 8 H -0.4778 0.0103 -4.2844 0
M  V30 9 H -1.6524 0.9086 -3.2054 0
M  V30 10 H 1.2867 0.3493 -2.7610 0
M  V30 11 H 0.9622 1.9879 -0.8111 0
M  V30 12 H -0.8411 1.8760 -1.1613 0
M  V30 13 H -0.2407 1.3719 1.0526 0
M  V30 14 H -2.3726 0.2630 0.6077 0
M  V30 15 H -1.7063 -1.3340 0.9470 0
M  V30 16 H -1.7962 0.9421 2.9503 0
M  V30 17 H -2.9638 -0.3900 2.8710 0
M  V30 18 C 2.3642 -0.5428 -0.1959 0
M  V30 19 C 2.1145 -0.6907 -1.6829 0
M  V30 20 C 0.6200 -0.6455 -1.9898 0
M  V30 21 O 0.1384 0.5712 -1.5577 0
M  V30 22 C -1.2194 0.7521 -1.7748 0
M  V30 23 C -1.9309 0.8589 -0.4727 0
M  V30 24 C -3.4161 1.0565 -0.6251 0
M  V30 25 H 3.4652 -0.5232 -0.0619 0
M  V30 26 H 1.9140 -1.4225 0.3065 0
M  V30 27 H 2.6393 0.1834 -2.1519 0
M  V30 28 H 0.4756 -0.8571 -3.0617 0
M  V30 29 H 0.1717 -1.4541 -1.3476 0
M  V30 30 H -1.5767 -0.1830 -2.2658 0
M  V30 31 H -1.7578 -0.0176 0.1657 0
M  V30 32 H -1.5878 1.7374 0.1411 0
M  V30 33 H -3.8147 0.2156 -1.2470 0
M  V30 34 H -3.9543 1.0049 0.3347 0
M  V30 35 C 2.4527 -0.5143 1.9770 0
M  V30 36 C 2.9262 -1.0051 0.6241 0
M  V30 37 C 1.7653 -1.0775 -0.3642 0
M  V30 38 O 1.2396 0.1902 -0.4891 0
M  V30 39 C 0.1672 0.2747 -1.3645 0
M  V30 40 C -1.0647 0.6537 -0.6217 0
M  V30 41 C -2.2780 0.7652 -1.5068 0
M  V30 42 H 3.3561 -0.4305 2.6153 0
M  V30 43 H 1.7468 -1.2696 2.3769 0
M  V30 44 H 3.6813 -0.2454 0.2895 0
M  V30 45 H 2.1290 -1.5325 -1.2998 0
M  V30 46 H 1.0007 -1.7317 0.1404 0
M  V30 47 H 0.0089 -0.7584 -1.7530 0
M  V30 48 H -1.2884 -0.0483 0.1926 0
M  V30 49 H -0.9816 1.6592 -0.1235 0
M  V30 50 H -2.4027 -0.2073 -2.0466 0
M  V30 51 H -3.2089 0.9173 -0.9378 0
M  V30 52 C 2.8889 -0.7390 -0.7691 0
M  V30 53 C 1.4898 -0.8970 -1.3288 0
M  V30 54 C 0.4530 -0.8925 -0.2087 0
M  V30 55 O 0.5542 0.3120 0.4533 0
M  V30 56 C -0.3371 0.4561 1.5060 0
M  V30 57 C 0.4068 0.5469 2.7911 0
M  V30 58 C -0.4954 0.7044 3.9866 0
M  V30 59 H 3.5730 -0.6896 -1.6410 0
M  V30 60 H 3.0996 -1.6292 -0.1430 0
M  V30 61 H 1.3463 -0.0103 -2.0016 0
M  V30 62 H -0.5354 -1.1104 -0.6447 0
M  V30 63 H 0.7833 -1.7112 0.4898 0
M  V30 64 H -0.9273 -0.4894 1.5372 0
M  V30 65 H 1.0565 -0.3232 2.9546 0
M  V30 66 H 1.0956 1.4356 2.8344 0
M  V30 67 H -1.2204 -0.1483 3.9873 0
M  V30 68 H 0.0480 0.6407 4.9428 0
M  V30 69 C 1.5510 -0.1888 2.7023 0
M  V30 70 C 2.1207 -0.7110 1.3991 0
M  V30 71 C 1.0336 -0.8105 0.3323 0
M  V30 72 O 0.5168 0.4524 0.1393 0
M  V30 73 C -0.4902 0.5126 -0.8124 0
M  V30 74 C -1.7725 0.9060 -0.1690 0
M  V30 75 C -2.9195 0.9927 -1.1412 0
M  V30 76 H 2.4063 -0.0871 3.4014 0
M  V30 77 H 0.8191 -0.9362 3.0690 0
M  V30 78 H 2.8970 0.0426 1.1010 0
M  V30 79 H 1.4638 -1.2870 -0.5635 0
M  V30 80 H 0.2355 -1.4544 0.7967 0
M  V30 81 H -0.6193 -0.5300 -1.1859 0
M  V30 82 H -2.0532 0.2234 0.6440 0
M  V30 83 H -1.7264 1.9235 0.3092 0
M  V30 84 H -3.0043 0.0070 -1.6646 0
M  V30 85 H -3.8889 1.1560 -0.6441 0
M  V30 END ATOM
M  V30 BEGIN BOND
M  V30 1 1 1 2
M  V30 2 1 2 3
M  V30 3 1 3 4
M  V30 4 1 4 5
M  V30 5 1 5 6
M  V30 6 1 6 7
M  V30 7 1 1 8
M  V30 8 1 1 9
M  V30 9 1 2 10
M  V30 10 1 3 11
M  V30 11 1 3 12
M  V30 12 1 5 13
M  V30 13 1 6 14
M  V30 14 1 6 15
M  V30 15 1 7 16
M  V30 16 1 7 17
M  V30 17 1 18 19
M  V30 18 1 19 20
M  V30 19 1 20 21
M  V30 20 1 21 22
M  V30 21 1 22 23
M  V30 22 1 23 24
M  V30 23 1 18 25
M  V30 24 1 18 26
M  V30 25 1 19 27
M  V30 26 1 20 28
M  V30 27 1 20 29
M  V30 28 1 22 30
M  V30 29 1 23 31
M  V30 30 1 23 32
M  V30 31 1 24 33
M  V30 32 1 24 34
M  V30 33 1 35 36
M  V30 34 1 36 37
M  V30 35 1 37 38
M  V30 36 1 38 39
M  V30 37 1 39 40
M  V30 38 1 40 41
M  V30 39 1 35 42
M  V30 40 1 35 43
M  V30 41 1 36 44
M  V30 42 1 37 45
M  V30 43 1 37 46
M  V30 44 1 39 47
M  V30 45 1 40 48
M  V30 46 1 40 49
M  V30 47 1 41 50
M  V30 48 1 41 51
M  V30 49 1 52 53
M  V30 50 1 53 54
M  V30 51 1 54 55
M  V30 52 1 55 56
M  V30 53 1 56 57
M  V30 54 1 57 58
M  V30 55 1 52 59
M  V30 56 1 52 60
M  V30 57 1 53 61
M  V30 58 1 54 62
M  V30 59 1 54 63
M  V30 60 1 56 64
M  V30 61 1 57 65
M  V30 62 1 57 66
M  V30 63 1 58 67
M  V30 64 1 58 68
M  V30 65 1 69 70
M  V30 66 1 70 71
M  V30 67 1 71 72
M  V30 68 1 72 73
M  V30 69 1 73 74
M  V30 70 1 74 75
M  V30 71 1 69 76
M  V30 72 1 69 77
M  V30 73 1 70 78
M  V30 74 1 71 79
M  V30 75 1 71 80
M  V30 76 1 73 81
M  V30 77 1 74 82
M  V30 78 1 74 83
M  V30 79 1 75 84
M  V30 80 1 75 85
M  V30 81 1 35 52
M  V30 82 1 18 39
M  V30 83 1 1 19
M  V30 84 1 2 22
M  V30 85 1 56 69
M  V30 86 1 5 24
M  V30 87 1 58 70
M  V30 88 1 36 53
M  V30 89 1 7 75
M  V30 90 1 41 73
M  V30 END BOND
M  V30 END CTAB
M  END

$$$$
