
     RDKit          3D

  0  0  0  0  0  0  0  0  0  0999 V3000
M  V30 BEGIN CTAB
M  V30 COUNTS 85 90 0 0 0
M  V30 BEGIN ATOM
M  V30 1 C -2.7937 1.3370 0.3928 0
M  V30 2 C -2.4513 0.9743 -1.0378 0
M  V30 3 C -0.9611 1.1674 -1.3053 0
M  V30 4 O -0.2688 0.3473 -0.4409 0
M  V30 5 C 1.1098 0.4201 -0.5732 0
M  V30 6 C 1.7097 0.9747 0.6700 0
M  V30 7 C 3.2101 1.0862 0.6036 0
M  V30 8 H -3.8721 1.1129 0.5249 0
M  V30 9 H -2.5898 2.4192 0.5199 0
M  V30 10 H -2.7320 -0.1078 -1.1363 0
M  V30 11 H -0.7714 0.9921 -2.3767 0
M  V30 12 H -0.7561 2.2374 -1.0218 0
M  V30 13 H 1.2993 1.1606 -1.3851 0
M  V30 14 H 1.2961 1.9595 0.9245 0
M  V30 15 H 1.5110 0.3341 1.5735 0
M  V30 16 H 3.4716 1.7030 -0.2930 0
M  V30 17 H 3.6376 1.6153 1.4702 0
M  V30 18 C 1.3209 -1.9500 2.0828 0
M  V30 19 C 1.3393 -0.5378 2.6315 0
M  V30 20 C 1.5133 0.4795 1.5071 0
M  V30 21 O 0.4526 0.3331 0.6395 0
M  V30 22 C 0.4807 1.2022 -0.4409 0
M  V30 23 C 0.6442 0.4346 -1.7046 0
M  V30 24 C 0.6849 1.3119 -2.9281 0
M  V30 25 H 1.1305 -2.6205 2.9457 0
M  V30 26 H 2.3153 -2.1457 1.6337 0
M  V30 27 H 0.3416 -0.4084 3.1286 0
M  V30 28 H 1.6233 1.4809 1.9540 0
M  V30 29 H 2.4536 0.1611 0.9764 0
M  V30 30 H 1.4010 1.8185 -0.3124 0
M  V30 31 H 1.5454 -0.1926 -1.6932 0
M  V30 32 H -0.2043 -0.2797 -1.8940 0
M  V30 33 H 1.5051 2.0607 -2.7895 0
M  V30 34 H 0.9354 0.7546 -3.8448 0
M  V30 35 C -0.4372 -1.9724 1.6763 0
M  V30 36 C -0.7243 -2.2405 0.2130 0
M  V30 37 C -1.4182 -1.0441 -0.4325 0
M  V30 38 O -0.5783 0.0423 -0.3164 0
M  V30 39 C -1.0851 1.2109 -0.8651 0
M  V30 40 C -1.3053 2.2196 0.2059 0
M  V30 41 C -1.8577 3.5212 -0.3126 0
M  V30 42 H 0.1181 -2.8549 2.0550 0
M  V30 43 H -1.4121 -1.8596 2.1917 0
M  V30 44 H 0.2828 -2.4097 -0.2524 0
M  V30 45 H -1.6997 -1.3158 -1.4628 0
M  V30 46 H -2.3266 -0.8615 0.2068 0
M  V30 47 H -2.0878 0.9456 -1.2742 0
M  V30 48 H -1.9713 1.8458 0.9948 0
M  V30 49 H -0.3559 2.5047 0.7384 0
M  V30 50 H -2.8014 3.2981 -0.8715 0
M  V30 51 H -2.1406 4.2163 0.4939 0
M  V30 52 C 2.6364 -0.4295 -0.2768 0
M  V30 53 C 2.1023 0.7095 -1.1211 0
M  V30 54 C 0.6569 0.4471 -1.5353 0
M  V30 55 O -0.0952 0.3295 -0.3865 0
M  V30 56 C -1.4417 0.0871 -0.6137 0
M  V30 57 C -1.8101 -1.2561 -0.0912 0
M  V30 58 C -3.2624 -1.5946 -0.3020 0
M  V30 59 H 3.6608 -0.1379 0.0333 0
M  V30 60 H 2.6523 -1.3369 -0.9133 0
M  V30 61 H 2.1641 1.6133 -0.4588 0
M  V30 62 H 0.3403 1.2439 -2.2277 0
M  V30 63 H 0.6837 -0.5551 -2.0473 0
M  V30 64 H -1.5620 0.0502 -1.7216 0
M  V30 65 H -1.1970 -2.0532 -0.5323 0
M  V30 66 H -1.6535 -1.3502 1.0191 0
M  V30 67 H -3.4842 -1.5004 -1.3950 0
M  V30 68 H -3.5014 -2.6358 -0.0331 0
M  V30 69 C -2.4409 -0.3722 0.8524 0
M  V30 70 C -1.6277 -0.1953 2.1185 0
M  V30 71 C -0.2555 -0.8486 1.9784 0
M  V30 72 O 0.3925 -0.2441 0.9230 0
M  V30 73 C 1.6632 -0.7429 0.6781 0
M  V30 74 C 1.7012 -1.4000 -0.6559 0
M  V30 75 C 3.0531 -1.9702 -0.9957 0
M  V30 76 H -3.3912 0.1782 1.0092 0
M  V30 77 H -2.6223 -1.4580 0.7221 0
M  V30 78 H -1.5242 0.9153 2.2421 0
M  V30 79 H 0.2630 -0.7872 2.9489 0
M  V30 80 H -0.4747 -1.9163 1.6968 0
M  V30 81 H 1.8293 -1.5406 1.4393 0
M  V30 82 H 0.9521 -2.1979 -0.7449 0
M  V30 83 H 1.4710 -0.6905 -1.4984 0
M  V30 84 H 3.3460 -2.6761 -0.1781 0
M  V30 85 H 3.0443 -2.5665 -1.9219 0
M  V30 END ATOM
M  V30 BEGIN BOND
M  V30 1 1 1 2
M  V30 2 1 2 3
M  V30 3 1 3 4
M  V30 4 1 4 5
M  V30 5 1 5 6
M  V30 6 1 6 7
M  V30 7 1 1 8
M  V30 8 1 1 9
M  V30 9 1 2 10
M  V30 10 1 3 11
M  V30 11 1 3 12
M  V30 12 1 5 13
M  V30 13 1 6 14
M  V30 14 1 6 15
M  V30 15 1 7 16
M  V30 16 1 7 17
M  V30 17 1 18 19
M  V30 18 1 19 20
M  V30 19 1 20 21
M  V30 20 1 21 22
M  V30 21 1 22 23
M  V30 22 1 23 24
M  V30 23 1 18 25
M  V30 24 1 18 26
M  V30 25 1 19 27
M  V30 26 1 20 28
M  V30 27 1 20 29
M  V30 28 1 22 30
M  V30 29 1 23 31
M  V30 30 1 23 32
M  V30 31 1 24 33
M  V30 32 1 24 34
M  V30 33 1 35 36
M  V30 34 1 36 37
M  V30 35 1 37 38
M  V30 36 1 38 39
M  V30 37 1 39 40
M  V30 38 1 40 41
M  V30 39 1 35 42
M  V30 40 1 35 43
M  V30 41 1 36 44
M  V30 42 1 37 45
M  V30 43 1 37 46
M  V30 44 1 39 47
M  V30 45 1 40 48
M  V30 46 1 40 49
M  V30 47 1 41 50
M  V30 48 1 41 51
M  V30 49 1 52 53
M  V30 50 1 53 54
M  V30 51 1 54 55
M  V30 52 1 55 56
M  V30 53 1 56 57
M  V30 54 1 57 58
M  V30 55 1 52 59
M  V30 56 1 52 60
M  V30 57 1 53 61
M  V30 58 1 54 62
M  V30 59 1 54 63
M  V30 60 1 56 64
M  V30 61 1 57 65
M  V30 62 1 57 66
M  V30 63 1 58 67
M  V30 64 1 58 68
M  V30 65 1 69 70
M  V30 66 1 70 71
M  V30 67 1 71 72
M  V30 68 1 72 73
M  V30 69 1 73 74
M  V30 70 1 74 75
M  V30 71 1 69 76
M  V30 72 1 69 77
M  V30 73 1 70 78
M  V30 74 1 71 79
M  V30 75 1 71 80
M  V30 76 1 73 81
M  V30 77 1 74 82
M  V30 78 1 74 83
M  V30 79 1 75 84
M  V30 80 1 75 85
M  V30 81 1 35 69
M  V30 82 1 18 70
M  V30 83 1 24 52
M  V30 84 1 1 39
M  V30 85 1 58 75
M  V30 86 1 5 53
M  V30 87 1 19 73
M  V30 88 1 36 56
M  V30 89 1 7 22
M  V30 90 1 2 41
M  V30 END BOND
M  V30 END CTAB
M  END

$$$$
