
     RDKit          3D

  0  0  0  0  0  0  0  0  0  0999 V3000
M  V30 BEGIN CTAB
M  V30 COUNTS 85 90 0 0 0
M  V30 BEGIN ATOM
M  V30 1 C 0.4328 1.7769 -2.3518 0
M  V30 2 C 0.6356 0.4075 -2.9675 0
M  V30 3 C 1.0913 -0.5992 -1.9146 0
M  V30 4 O 0.1133 -0.6667 -0.9460 0
M  V30 5 C 0.3965 -1.5514 0.0838 0
M  V30 6 C 0.5530 -0.8074 1.3624 0
M  V30 7 C 0.8642 -1.7025 2.5330 0
M  V30 8 H 0.0459 2.4312 -3.1598 0
M  V30 9 H 1.4194 2.1281 -1.9883 0
M  V30 10 H -0.3704 0.1226 -3.3752 0
M  V30 11 H 1.3244 -1.5516 -2.4178 0
M  V30 12 H 2.0122 -0.1393 -1.4590 0
M  V30 13 H 1.3905 -1.9942 -0.1596 0
M  V30 14 H 1.3290 -0.0332 1.2975 0
M  V30 15 H -0.3811 -0.2576 1.6643 0
M  V30 16 H 1.7816 -2.2928 2.2825 0
M  V30 17 H 1.1069 -1.1395 3.4482 0
M  V30 18 C -1.6409 1.9722 0.9090 0
M  V30 19 C -1.7455 0.4617 0.8541 0
M  V30 20 C -1.0234 -0.0886 -0.3728 0
M  V30 21 O 0.3010 0.2814 -0.2826 0
M  V30 22 C 1.0841 -0.1549 -1.3409 0
M  V30 23 C 1.5921 1.0126 -2.1103 0
M  V30 24 C 2.4537 0.6192 -3.2812 0
M  V30 25 H -2.1319 2.2877 1.8523 0
M  V30 26 H -2.1737 2.3752 0.0244 0
M  V30 27 H -1.2505 0.1038 1.7956 0
M  V30 28 H -1.2080 -1.1735 -0.4312 0
M  V30 29 H -1.4859 0.4541 -1.2440 0
M  V30 30 H 0.3978 -0.7168 -2.0164 0
M  V30 31 H 0.7781 1.6535 -2.4740 0
M  V30 32 H 2.2428 1.6921 -1.4930 0
M  V30 33 H 1.8617 -0.0767 -3.9277 0
M  V30 34 H 2.7198 1.4750 -3.9219 0
M  V30 35 C -1.6025 -0.0450 2.6023 0
M  V30 36 C -0.8678 -1.1869 1.9303 0
M  V30 37 C -0.6157 -0.8784 0.4570 0
M  V30 38 O 0.1485 0.2666 0.3918 0
M  V30 39 C 0.4570 0.6686 -0.8992 0
M  V30 40 C -0.1802 1.9818 -1.1869 0
M  V30 41 C 0.1085 2.4872 -2.5759 0
M  V30 42 H -1.6922 -0.3158 3.6743 0
M  V30 43 H -2.5992 0.0371 2.1240 0
M  V30 44 H 0.1032 -1.2723 2.4864 0
M  V30 45 H -0.1732 -1.7693 -0.0173 0
M  V30 46 H -1.6340 -0.6511 0.0342 0
M  V30 47 H -0.0202 -0.0800 -1.5738 0
M  V30 48 H -1.2685 1.9530 -1.0437 0
M  V30 49 H 0.1808 2.8005 -0.5047 0
M  V30 50 H -0.2156 1.7014 -3.3041 0
M  V30 51 H -0.4678 3.3912 -2.8295 0
M  V30 52 C -1.8737 2.1113 0.8530 0
M  V30 53 C -0.3902 2.1734 1.1545 0
M  V30 54 C 0.1267 0.8151 1.6206 0
M  V30 55 O -0.1031 -0.0922 0.6091 0
M  V30 56 C 0.3203 -1.3810 0.8975 0
M  V30 57 C -0.8503 -2.2967 0.9613 0
M  V30 58 C -0.4709 -3.7205 1.2725 0
M  V30 59 H -2.1581 3.1107 0.4646 0
M  V30 60 H -2.3975 1.8857 1.8036 0
M  V30 61 H 0.0898 2.4650 0.1828 0
M  V30 62 H 1.1800 0.9263 1.9252 0
M  V30 63 H -0.5276 0.5453 2.4960 0
M  V30 64 H 0.7556 -1.3364 1.9231 0
M  V30 65 H -1.5953 -1.9641 1.6963 0
M  V30 66 H -1.4104 -2.3571 -0.0127 0
M  V30 67 H 0.1089 -3.7224 2.2298 0
M  V30 68 H -1.3456 -4.3670 1.4468 0
M  V30 69 C -1.2089 -1.1233 2.5408 0
M  V30 70 C -1.3360 0.3065 2.0560 0
M  V30 71 C -0.2669 0.6237 1.0139 0
M  V30 72 O -0.4411 -0.2417 -0.0443 0
M  V30 73 C 0.4699 -0.0661 -1.0752 0
M  V30 74 C 1.3267 -1.2752 -1.2057 0
M  V30 75 C 2.3465 -1.1609 -2.3080 0
M  V30 76 H -2.0509 -1.2937 3.2427 0
M  V30 77 H -0.2317 -1.2146 3.0561 0
M  V30 78 H -2.3599 0.3668 1.6006 0
M  V30 79 H -0.3286 1.6951 0.7631 0
M  V30 80 H 0.7078 0.3758 1.5197 0
M  V30 81 H 1.1337 0.7709 -0.7559 0
M  V30 82 H 1.8481 -1.5150 -0.2695 0
M  V30 83 H 0.7389 -2.2014 -1.4560 0
M  V30 84 H 2.9552 -0.2403 -2.1217 0
M  V30 85 H 3.0608 -1.9995 -2.3173 0
M  V30 END ATOM
M  V30 BEGIN BOND
M  V30 1 1 1 2
M  V30 2 1 2 3
M  V30 3 1 3 4
M  V30 4 1 4 5
M  V30 5 1 5 6
M  V30 6 1 6 7
M  V30 7 1 1 8
M  V30 8 1 1 9
M  V30 9 1 2 10
M  V30 10 1 3 11
M  V30 11 1 3 12
M  V30 12 1 5 13
M  V30 13 1 6 14
M  V30 14 1 6 15
M  V30 15 1 7 16
M  V30 16 1 7 17
M  V30 17 1 18 19
M  V30 18 1 19 20
M  V30 19 1 20 21
M  V30 20 1 21 22
M  V30 21 1 22 23
M  V30 22 1 23 24
M  V30 23 1 18 25
M  V30 24 1 18 26
M  V30 25 1 19 27
M  V30 26 1 20 28
M  V30 27 1 20 29
M  V30 28 1 22 30
M  V30 29 1 23 31
M  V30 30 1 23 32
M  V30 31 1 24 33
M  V30 32 1 24 34
M  V30 33 1 35 36
M  V30 34 1 36 37
M  V30 35 1 37 38
M  V30 36 1 38 39
M  V30 37 1 39 40
M  V30 38 1 40 41
M  V30 39 1 35 42
M  V30 40 1 35 43
M  V30 41 1 36 44
M  V30 42 1 37 45
M  V30 43 1 37 46
M  V30 44 1 39 47
M  V30 45 1 40 48
M  V30 46 1 40 49
M  V30 47 1 41 50
M  V30 48 1 41 51
M  V30 49 1 52 53
M  V30 50 1 53 54
M  V30 51 1 54 55
M  V30 52 1 55 56
M  V30 53 1 56 57
M  V30 54 1 57 58
M  V30 55 1 52 59
M  V30 56 1 52 60
M  V30 57 1 53 61
M  V30 58 1 54 62
M  V30 59 1 54 63
M  V30 60 1 56 64
M  V30 61 1 57 65
M  V30 62 1 57 66
M  V30 63 1 58 67
M  V30 64 1 58 68
M  V30 65 1 69 70
M  V30 66 1 70 71
M  V30 67 1 71 72
M  V30 68 1 72 73
M  V30 69 1 73 74
M  V30 70 1 74 75
M  V30 71 1 69 76
M  V30 72 1 69 77
M  V30 73 1 70 78
M  V30 74 1 71 79
M  V30 75 1 71 80
M  V30 76 1 73 81
M  V30 77 1 74 82
M  V30 78 1 74 83
M  V30 79 1 75 84
M  V30 80 1 75 85
M  V30 81 1 35 52
M  V30 82 1 18 41
M  V30 83 1 1 19
M  V30 84 1 2 22
M  V30 85 1 56 69
M  V30 86 1 5 24
M  V30 87 1 58 70
M  V30 88 1 36 53
M  V30 89 1 7 75
M  V30 90 1 39 73
M  V30 END BOND
M  V30 END CTAB
M  END

$$$$
