
     RDKit          3D

  0  0  0  0  0  0  0  0  0  0999 V3000
M  V30 BEGIN CTAB
M  V30 COUNTS 85 90 0 0 0
M  V30 BEGIN ATOM
M  V30 1 C -4.0550 -4.5493 1.3409 0
M  V30 2 C -2.8104 -5.2165 1.8900 0
M  V30 3 C -1.8912 -5.6670 0.7579 0
M  V30 4 O -1.5368 -4.5493 0.0338 0
M  V30 5 C -0.6949 -4.8117 -1.0366 0
M  V30 6 C -1.3865 -4.4943 -2.3149 0
M  V30 7 C -0.5340 -4.7549 -3.5288 0
M  V30 8 H -4.6367 -4.1981 2.2177 0
M  V30 9 H -4.6163 -5.3131 0.7662 0
M  V30 10 H -2.3108 -4.4276 2.5125 0
M  V30 11 H -1.0521 -6.2343 1.1921 0
M  V30 12 H -2.5371 -6.3216 0.1086 0
M  V30 13 H -0.5211 -5.9130 -1.0248 0
M  V30 14 H -2.3287 -5.0476 -2.4232 0
M  V30 15 H -1.6756 -3.4100 -2.3969 0
M  V30 16 H -0.1990 -5.8222 -3.4933 0
M  V30 17 H -1.0904 -4.6434 -4.4730 0
M  V30 18 C -3.8169 2.0768 3.3635 0
M  V30 19 C -2.7210 1.2340 2.7435 0
M  V30 20 C -2.9957 -0.2528 2.9518 0
M  V30 21 O -4.2013 -0.5460 2.3521 0
M  V30 22 C -4.5808 -1.8753 2.4639 0
M  V30 23 C -5.8198 -1.9816 3.2804 0
M  V30 24 C -6.2968 -3.4001 3.4489 0
M  V30 25 H -3.5794 3.1322 3.1180 0
M  V30 26 H -3.7913 1.9034 4.4581 0
M  V30 27 H -2.7440 1.4893 1.6509 0
M  V30 28 H -2.1308 -0.8249 2.5786 0
M  V30 29 H -3.1147 -0.3682 4.0653 0
M  V30 30 H -3.7676 -2.3771 3.0385 0
M  V30 31 H -5.6989 -1.5321 4.2749 0
M  V30 32 H -6.6926 -1.4398 2.8212 0
M  V30 33 H -5.4584 -3.9968 3.8891 0
M  V30 34 H -7.1353 -3.4871 4.1580 0
M  V30 35 C 1.6568 4.9452 0.1285 0
M  V30 36 C 1.8705 3.4788 -0.1872 0
M  V30 37 C 1.0116 2.5980 0.7160 0
M  V30 38 O -0.3076 2.9316 0.4977 0
M  V30 39 C -1.2093 2.2031 1.2591 0
M  V30 40 C -1.9218 3.1062 2.2024 0
M  V30 41 C -2.9218 2.3865 3.0685 0
M  V30 42 H 2.2626 5.5165 -0.6044 0
M  V30 43 H 2.0115 5.1179 1.1644 0
M  V30 44 H 1.5585 3.3660 -1.2593 0
M  V30 45 H 1.2699 1.5436 0.5261 0
M  V30 46 H 1.2881 2.9064 1.7628 0
M  V30 47 H -0.5946 1.5068 1.8760 0
M  V30 48 H -1.2277 3.6562 2.8516 0
M  V30 49 H -2.5198 3.9016 1.6770 0
M  V30 50 H -2.3848 1.5654 3.6073 0
M  V30 51 H -3.3514 3.0319 3.8511 0
M  V30 52 C 3.1604 5.9288 -0.6882 0
M  V30 53 C 4.2839 6.3321 -1.6212 0
M  V30 54 C 5.0826 5.1111 -2.0694 0
M  V30 55 O 4.2186 4.2607 -2.7247 0
M  V30 56 C 4.8137 3.0981 -3.1913 0
M  V30 57 C 4.2424 1.9186 -2.4873 0
M  V30 58 C 4.8411 0.6129 -2.9400 0
M  V30 59 H 2.5942 6.8546 -0.4587 0
M  V30 60 H 3.6226 5.5036 0.2253 0
M  V30 61 H 3.7730 6.8117 -2.4978 0
M  V30 62 H 5.9465 5.4548 -2.6610 0
M  V30 63 H 5.4106 4.6171 -1.1125 0
M  V30 64 H 5.8869 3.1655 -2.8963 0
M  V30 65 H 4.3521 1.9950 -1.3974 0
M  V30 66 H 3.1369 1.8007 -2.6603 0
M  V30 67 H 5.9506 0.6768 -2.8074 0
M  V30 68 H 4.5118 -0.2423 -2.3287 0
M  V30 69 C 3.9866 0.6044 -3.2091 0
M  V30 70 C 4.1995 -0.8617 -3.5265 0
M  V30 71 C 3.3410 -1.7432 -2.6234 0
M  V30 72 O 2.0217 -1.4088 -2.8403 0
M  V30 73 C 1.1204 -2.1377 -2.0788 0
M  V30 74 C 0.4090 -1.2353 -1.1340 0
M  V30 75 C -0.5904 -1.9555 -0.2678 0
M  V30 76 H 4.5920 1.1763 -3.9419 0
M  V30 77 H 4.3423 0.7759 -2.1733 0
M  V30 78 H 3.8865 -0.9733 -4.5984 0
M  V30 79 H 3.5987 -2.7975 -2.8147 0
M  V30 80 H 3.6185 -1.4360 -1.5766 0
M  V30 81 H 1.7354 -2.8349 -1.4632 0
M  V30 82 H 1.1040 -0.6863 -0.4848 0
M  V30 83 H -0.1890 -0.4391 -1.6580 0
M  V30 84 H -0.0533 -2.7774 0.2697 0
M  V30 85 H -1.0191 -1.3108 0.5158 0
M  V30 END ATOM
M  V30 BEGIN BOND
M  V30 1 1 1 2
M  V30 2 1 2 3
M  V30 3 1 3 4
M  V30 4 1 4 5
M  V30 5 1 5 6
M  V30 6 1 6 7
M  V30 7 1 1 8
M  V30 8 1 1 9
M  V30 9 1 2 10
M  V30 10 1 3 11
M  V30 11 1 3 12
M  V30 12 1 5 13
M  V30 13 1 6 14
M  V30 14 1 6 15
M  V30 15 1 7 16
M  V30 16 1 7 17
M  V30 17 1 18 19
M  V30 18 1 19 20
M  V30 19 1 20 21
M  V30 20 1 21 22
M  V30 21 1 22 23
M  V30 22 1 23 24
M  V30 23 1 18 25
M  V30 24 1 18 26
M  V30 25 1 19 27
M  V30 26 1 20 28
M  V30 27 1 20 29
M  V30 28 1 22 30
M  V30 29 1 23 31
M  V30 30 1 23 32
M  V30 31 1 24 33
M  V30 32 1 24 34
M  V30 33 1 35 36
M  V30 34 1 36 37
M  V30 35 1 37 38
M  V30 36 1 38 39
M  V30 37 1 39 40
M  V30 38 1 40 41
M  V30 39 1 35 42
M  V30 40 1 35 43
M  V30 41 1 36 44
M  V30 42 1 37 45
M  V30 43 1 37 46
M  V30 44 1 39 47
M  V30 45 1 40 48
M  V30 46 1 40 49
M  V30 47 1 41 50
M  V30 48 1 41 51
M  V30 49 1 52 53
M  V30 50 1 53 54
M  V30 51 1 54 55
M  V30 52 1 55 56
M  V30 53 1 56 57
M  V30 54 1 57 58
M  V30 55 1 52 59
M  V30 56 1 52 60
M  V30 57 1 53 61
M  V30 58 1 54 62
M  V30 59 1 54 63
M  V30 60 1 56 64
M  V30 61 1 57 65
M  V30 62 1 57 66
M  V30 63 1 58 67
M  V30 64 1 58 68
M  V30 65 1 69 70
M  V30 66 1 70 71
M  V30 67 1 71 72
M  V30 68 1 72 73
M  V30 69 1 73 74
M  V30 70 1 74 75
M  V30 71 1 69 76
M  V30 72 1 69 77
M  V30 73 1 70 78
M  V30 74 1 71 79
M  V30 75 1 71 80
M  V30 76 1 73 81
M  V30 77 1 74 82
M  V30 78 1 74 83
M  V30 79 1 75 84
M  V30 80 1 75 85
M  V30 81 1 35 52
M  V30 82 1 18 41
M  V30 83 1 1 19
M  V30 84 1 2 22
M  V30 85 1 56 69
M  V30 86 1 5 24
M  V30 87 1 58 70
M  V30 88 1 36 53
M  V30 89 1 7 73
M  V30 90 1 39 75
M  V30 END BOND
M  V30 END CTAB
M  END

$$$$
