
     RDKit          3D

  0  0  0  0  0  0  0  0  0  0999 V3000
M  V30 BEGIN CTAB
M  V30 COUNTS 85 90 0 0 0
M  V30 BEGIN ATOM
M  V30 1 C -0.2259 -2.7810 -0.8986 0
M  V30 2 C 0.1039 -2.1514 -2.2366 0
M  V30 3 C -0.1354 -0.6443 -2.2013 0
M  V30 4 O 0.6787 -0.1118 -1.2252 0
M  V30 5 C 0.5649 1.2628 -1.0809 0
M  V30 6 C 0.0138 1.5875 0.2621 0
M  V30 7 C -0.1410 3.0673 0.4957 0
M  V30 8 H 0.0306 -3.8568 -0.9851 0
M  V30 9 H -1.3112 -2.6398 -0.7225 0
M  V30 10 H 1.1917 -2.3735 -2.3998 0
M  V30 11 H 0.0172 -0.2412 -3.2156 0
M  V30 12 H -1.2060 -0.5325 -1.8718 0
M  V30 13 H -0.1936 1.5863 -1.8315 0
M  V30 14 H -0.9547 1.1016 0.4397 0
M  V30 15 H 0.6742 1.2338 1.1017 0
M  V30 16 H -0.7793 3.4818 -0.3250 0
M  V30 17 H -0.6678 3.2983 1.4352 0
M  V30 18 C -0.9356 -0.7918 2.3949 0
M  V30 19 C -0.0584 0.3303 1.8782 0
M  V30 20 C 0.5867 -0.0527 0.5490 0
M  V30 21 O -0.4249 -0.3030 -0.3528 0
M  V30 22 C 0.0193 -0.6658 -1.6155 0
M  V30 23 C -0.3913 -2.0640 -1.9148 0
M  V30 24 C 0.0568 -2.5336 -3.2738 0
M  V30 25 H -1.4128 -0.4163 3.3233 0
M  V30 26 H -0.2779 -1.6593 2.6038 0
M  V30 27 H -0.7536 1.2007 1.7421 0
M  V30 28 H 1.2918 0.7431 0.2592 0
M  V30 29 H 1.1229 -1.0198 0.7597 0
M  V30 30 H 1.1330 -0.6577 -1.5608 0
M  V30 31 H -0.0242 -2.7727 -1.1607 0
M  V30 32 H -1.5084 -2.1988 -1.9205 0
M  V30 33 H 1.1670 -2.4061 -3.3350 0
M  V30 34 H -0.1345 -3.6058 -3.4394 0
M  V30 35 C -0.5534 1.8298 2.4226 0
M  V30 36 C 0.1151 2.2049 1.1157 0
M  V30 37 C 0.5491 0.9578 0.3502 0
M  V30 38 O -0.5781 0.2070 0.0955 0
M  V30 39 C -0.3312 -0.9666 -0.6010 0
M  V30 40 C -0.6604 -2.1405 0.2515 0
M  V30 41 C -0.4170 -3.4578 -0.4369 0
M  V30 42 H -0.8924 2.7787 2.8865 0
M  V30 43 H 0.2061 1.3238 3.0519 0
M  V30 44 H -0.6687 2.7664 0.5415 0
M  V30 45 H 1.1180 1.2727 -0.5396 0
M  V30 46 H 1.1988 0.3901 1.0733 0
M  V30 47 H 0.7695 -0.9904 -0.7776 0
M  V30 48 H -0.1046 -2.1322 1.1984 0
M  V30 49 H -1.7445 -2.1715 0.5514 0
M  V30 50 H 0.6494 -3.4786 -0.7763 0
M  V30 51 H -0.5370 -4.3204 0.2376 0
M  V30 52 C -1.0041 -0.8706 2.6181 0
M  V30 53 C -0.9376 0.5686 3.0870 0
M  V30 54 C -0.1059 1.4148 2.1269 0
M  V30 55 O -0.7066 1.3582 0.8879 0
M  V30 56 C -0.0520 2.0886 -0.0926 0
M  V30 57 C 0.4730 1.1730 -1.1410 0
M  V30 58 C 1.2008 1.8939 -2.2450 0
M  V30 59 H -1.6707 -1.4023 3.3276 0
M  V30 60 H 0.0258 -1.2795 2.6512 0
M  V30 61 H -2.0039 0.9183 3.0973 0
M  V30 62 H 0.0027 2.4250 2.5536 0
M  V30 63 H 0.8861 0.8860 2.0658 0
M  V30 64 H 0.8305 2.5498 0.4091 0
M  V30 65 H 1.1398 0.4067 -0.7239 0
M  V30 66 H -0.3399 0.5970 -1.6639 0
M  V30 67 H 2.0170 2.5030 -1.7808 0
M  V30 68 H 1.6981 1.2069 -2.9480 0
M  V30 69 C -0.2484 2.5939 1.6471 0
M  V30 70 C 0.4166 2.9701 0.3388 0
M  V30 71 C 0.8515 1.7239 -0.4276 0
M  V30 72 O -0.2748 0.9709 -0.6798 0
M  V30 73 C -0.0271 -0.2024 -1.3767 0
M  V30 74 C -0.3522 -1.3768 -0.5235 0
M  V30 75 C -0.1076 -2.6936 -1.2122 0
M  V30 76 H -0.5882 3.5422 2.1116 0
M  V30 77 H 0.5134 2.0894 2.2749 0
M  V30 78 H -0.3694 3.5302 -0.2339 0
M  V30 79 H 1.4179 2.0398 -1.3186 0
M  V30 80 H 1.5038 1.1575 0.2942 0
M  V30 81 H 1.0733 -0.2240 -1.5556 0
M  V30 82 H 0.2056 -1.3673 0.4223 0
M  V30 83 H -1.4355 -1.4099 -0.2213 0
M  V30 84 H 0.9581 -2.7124 -1.5539 0
M  V30 85 H -0.2246 -3.5565 -0.5374 0
M  V30 END ATOM
M  V30 BEGIN BOND
M  V30 1 1 1 2
M  V30 2 1 2 3
M  V30 3 1 3 4
M  V30 4 1 4 5
M  V30 5 1 5 6
M  V30 6 1 6 7
M  V30 7 1 1 8
M  V30 8 1 1 9
M  V30 9 1 2 10
M  V30 10 1 3 11
M  V30 11 1 3 12
M  V30 12 1 5 13
M  V30 13 1 6 14
M  V30 14 1 6 15
M  V30 15 1 7 16
M  V30 16 1 7 17
M  V30 17 1 18 19
M  V30 18 1 19 20
M  V30 19 1 20 21
M  V30 20 1 21 22
M  V30 21 1 22 23
M  V30 22 1 23 24
M  V30 23 1 18 25
M  V30 24 1 18 26
M  V30 25 1 19 27
M  V30 26 1 20 28
M  V30 27 1 20 29
M  V30 28 1 22 30
M  V30 29 1 23 31
M  V30 30 1 23 32
M  V30 31 1 24 33
M  V30 32 1 24 34
M  V30 33 1 35 36
M  V30 34 1 36 37
M  V30 35 1 37 38
M  V30 36 1 38 39
M  V30 37 1 39 40
M  V30 38 1 40 41
M  V30 39 1 35 42
M  V30 40 1 35 43
M  V30 41 1 36 44
M  V30 42 1 37 45
M  V30 43 1 37 46
M  V30 44 1 39 47
M  V30 45 1 40 48
M  V30 46 1 40 49
M  V30 47 1 41 50
M  V30 48 1 41 51
M  V30 49 1 52 53
M  V30 50 1 53 54
M  V30 51 1 54 55
M  V30 52 1 55 56
M  V30 53 1 56 57
M  V30 54 1 57 58
M  V30 55 1 52 59
M  V30 56 1 52 60
M  V30 57 1 53 61
M  V30 58 1 54 62
M  V30 59 1 54 63
M  V30 60 1 56 64
M  V30 61 1 57 65
M  V30 62 1 57 66
M  V30 63 1 58 67
M  V30 64 1 58 68
M  V30 65 1 69 70
M  V30 66 1 70 71
M  V30 67 1 71 72
M  V30 68 1 72 73
M  V30 69 1 73 74
M  V30 70 1 74 75
M  V30 71 1 69 76
M  V30 72 1 69 77
M  V30 73 1 70 78
M  V30 74 1 71 79
M  V30 75 1 71 80
M  V30 76 1 73 81
M  V30 77 1 74 82
M  V30 78 1 74 83
M  V30 79 1 75 84
M  V30 80 1 75 85
M  V30 81 1 35 52
M  V30 82 1 18 41
M  V30 83 1 1 19
M  V30 84 1 2 22
M  V30 85 1 56 69
M  V30 86 1 5 24
M  V30 87 1 58 70
M  V30 88 1 36 53
M  V30 89 1 7 73
M  V30 90 1 39 75
M  V30 END BOND
M  V30 END CTAB
M  END

$$$$
