
     RDKit          3D

  0  0  0  0  0  0  0  0  0  0999 V3000
M  V30 BEGIN CTAB
M  V30 COUNTS 85 90 0 0 0
M  V30 BEGIN ATOM
M  V30 1 C -5.6254 1.4367 -0.5128 0
M  V30 2 C -5.4272 2.3649 0.6681 0
M  V30 3 C -5.4355 1.5845 1.9798 0
M  V30 4 O -4.4061 0.6696 1.9315 0
M  V30 5 C -4.2936 -0.1167 3.0684 0
M  V30 6 C -4.5680 -1.5391 2.7300 0
M  V30 7 C -4.4659 -2.4596 3.9176 0
M  V30 8 H -5.5457 2.0647 -1.4237 0
M  V30 9 H -6.6359 0.9904 -0.4196 0
M  V30 10 H -4.4239 2.8381 0.4980 0
M  V30 11 H -5.3910 2.3020 2.8151 0
M  V30 12 H -6.4112 1.0231 1.9722 0
M  V30 13 H -5.1077 0.2186 3.7525 0
M  V30 14 H -5.5557 -1.6708 2.2686 0
M  V30 15 H -3.8397 -1.9576 1.9813 0
M  V30 16 H -5.1606 -2.0809 4.7092 0
M  V30 17 H -4.7952 -3.4862 3.6915 0
M  V30 18 C -3.9267 2.3744 -3.5865 0
M  V30 19 C -3.6451 1.2548 -4.5677 0
M  V30 20 C -2.3625 1.5271 -5.3489 0
M  V30 21 O -1.3291 1.6192 -4.4419 0
M  V30 22 C -0.0916 1.8671 -5.0169 0
M  V30 23 C 0.4111 3.1985 -4.5834 0
M  V30 24 C 1.7554 3.5422 -5.1690 0
M  V30 25 H -4.8319 2.0756 -3.0192 0
M  V30 26 H -4.1077 3.2958 -4.1756 0
M  V30 27 H -3.5320 0.3364 -3.9329 0
M  V30 28 H -2.2478 0.7461 -6.1181 0
M  V30 29 H -2.5201 2.5405 -5.8130 0
M  V30 30 H -0.2728 1.9289 -6.1154 0
M  V30 31 H -0.2934 4.0050 -4.8263 0
M  V30 32 H 0.5588 3.2676 -3.4701 0
M  V30 33 H 1.6752 3.4726 -6.2832 0
M  V30 34 H 2.0637 4.5771 -4.9516 0
M  V30 35 C 4.0412 -2.3259 3.4711 0
M  V30 36 C 3.2600 -3.6227 3.4112 0
M  V30 37 C 2.0481 -3.5701 4.3374 0
M  V30 38 O 1.2476 -2.5273 3.9240 0
M  V30 39 C 0.0988 -2.3601 4.6828 0
M  V30 40 C 0.1444 -1.0520 5.3898 0
M  V30 41 C -1.0728 -0.7964 6.2390 0
M  V30 42 H 4.8626 -2.4187 2.7314 0
M  V30 43 H 4.4378 -2.2234 4.5012 0
M  V30 44 H 2.9341 -3.7141 2.3412 0
M  V30 45 H 1.5671 -4.5617 4.3424 0
M  V30 46 H 2.4719 -3.3142 5.3485 0
M  V30 47 H 0.1316 -3.1546 5.4645 0
M  V30 48 H 1.0381 -0.9541 6.0201 0
M  V30 49 H 0.1892 -0.1764 4.6845 0
M  V30 50 H -1.1807 -1.6502 6.9546 0
M  V30 51 H -0.9778 0.1088 6.8597 0
M  V30 52 C 5.2808 2.6023 -0.5264 0
M  V30 53 C 5.3686 2.5754 0.9859 0
M  V30 54 C 4.5429 3.7037 1.5980 0
M  V30 55 O 3.2334 3.5269 1.2066 0
M  V30 56 C 2.3618 4.4892 1.6942 0
M  V30 57 C 1.8008 5.2823 0.5676 0
M  V30 58 C 0.8420 6.3528 1.0180 0
M  V30 59 H 5.8509 1.7231 -0.8905 0
M  V30 60 H 5.7415 3.5502 -0.8699 0
M  V30 61 H 4.9507 1.5767 1.2816 0
M  V30 62 H 4.7134 3.7124 2.6868 0
M  V30 63 H 4.9356 4.6408 1.1134 0
M  V30 64 H 2.9853 5.1843 2.3036 0
M  V30 65 H 2.5869 5.7494 -0.0404 0
M  V30 66 H 1.2090 4.6551 -0.1552 0
M  V30 67 H 1.3728 7.0031 1.7582 0
M  V30 68 H 0.5304 7.0191 0.1981 0
M  V30 69 C 3.9990 -3.1966 -3.0034 0
M  V30 70 C 3.0869 -3.1179 -4.2107 0
M  V30 71 C 1.9436 -4.1223 -4.0941 0
M  V30 72 O 1.2312 -3.8182 -2.9543 0
M  V30 73 C 0.1524 -4.6578 -2.7201 0
M  V30 74 C 0.3734 -5.4295 -1.4677 0
M  V30 75 C -0.7588 -6.3684 -1.1442 0
M  V30 76 H 4.7614 -2.4013 -3.1325 0
M  V30 77 H 4.4642 -4.2028 -3.0026 0
M  V30 78 H 2.6907 -2.0680 -4.2050 0
M  V30 79 H 1.3648 -4.1053 -5.0317 0
M  V30 80 H 2.4505 -5.1160 -3.9424 0
M  V30 81 H 0.1498 -5.3920 -3.5593 0
M  V30 82 H 1.3082 -6.0049 -1.4966 0
M  V30 83 H 0.4659 -4.7709 -0.5601 0
M  V30 84 H -0.9111 -7.0427 -2.0245 0
M  V30 85 H -0.5350 -7.0293 -0.2918 0
M  V30 END ATOM
M  V30 BEGIN BOND
M  V30 1 1 1 2
M  V30 2 1 2 3
M  V30 3 1 3 4
M  V30 4 1 4 5
M  V30 5 1 5 6
M  V30 6 1 6 7
M  V30 7 1 1 8
M  V30 8 1 1 9
M  V30 9 1 2 10
M  V30 10 1 3 11
M  V30 11 1 3 12
M  V30 12 1 5 13
M  V30 13 1 6 14
M  V30 14 1 6 15
M  V30 15 1 7 16
M  V30 16 1 7 17
M  V30 17 1 18 19
M  V30 18 1 19 20
M  V30 19 1 20 21
M  V30 20 1 21 22
M  V30 21 1 22 23
M  V30 22 1 23 24
M  V30 23 1 18 25
M  V30 24 1 18 26
M  V30 25 1 19 27
M  V30 26 1 20 28
M  V30 27 1 20 29
M  V30 28 1 22 30
M  V30 29 1 23 31
M  V30 30 1 23 32
M  V30 31 1 24 33
M  V30 32 1 24 34
M  V30 33 1 35 36
M  V30 34 1 36 37
M  V30 35 1 37 38
M  V30 36 1 38 39
M  V30 37 1 39 40
M  V30 38 1 40 41
M  V30 39 1 35 42
M  V30 40 1 35 43
M  V30 41 1 36 44
M  V30 42 1 37 45
M  V30 43 1 37 46
M  V30 44 1 39 47
M  V30 45 1 40 48
M  V30 46 1 40 49
M  V30 47 1 41 50
M  V30 48 1 41 51
M  V30 49 1 52 53
M  V30 50 1 53 54
M  V30 51 1 54 55
M  V30 52 1 55 56
M  V30 53 1 56 57
M  V30 54 1 57 58
M  V30 55 1 52 59
M  V30 56 1 52 60
M  V30 57 1 53 61
M  V30 58 1 54 62
M  V30 59 1 54 63
M  V30 60 1 56 64
M  V30 61 1 57 65
M  V30 62 1 57 66
M  V30 63 1 58 67
M  V30 64 1 58 68
M  V30 65 1 69 70
M  V30 66 1 70 71
M  V30 67 1 71 72
M  V30 68 1 72 73
M  V30 69 1 73 74
M  V30 70 1 74 75
M  V30 71 1 69 76
M  V30 72 1 69 77
M  V30 73 1 70 78
M  V30 74 1 71 79
M  V30 75 1 71 80
M  V30 76 1 73 81
M  V30 77 1 74 82
M  V30 78 1 74 83
M  V30 79 1 75 84
M  V30 80 1 75 85
M  V30 81 1 1 18
M  V30 82 1 24 35
M  V30 83 1 5 39
M  V30 84 1 52 69
M  V30 85 1 2 56
M  V30 86 1 7 73
M  V30 87 1 19 70
M  V30 88 1 36 75
M  V30 89 1 22 58
M  V30 90 1 41 53
M  V30 END BOND
M  V30 END CTAB
M  END

$$$$
