
     RDKit          3D

  0  0  0  0  0  0  0  0  0  0999 V3000
M  V30 BEGIN CTAB
M  V30 COUNTS 85 90 0 0 0
M  V30 BEGIN ATOM
M  V30 1 C 3.5732 2.6338 -4.5449 0
M  V30 2 C 4.5632 2.8738 -3.4234 0
M  V30 3 C 3.9688 3.7960 -2.3623 0
M  V30 4 O 2.8390 3.1868 -1.8608 0
M  V30 5 C 2.1897 3.9192 -0.8782 0
M  V30 6 C 0.8414 4.3262 -1.3572 0
M  V30 7 C 0.0711 5.1295 -0.3425 0
M  V30 8 H 4.0517 1.9118 -5.2380 0
M  V30 9 H 3.3908 3.6076 -5.0422 0
M  V30 10 H 4.7642 1.8569 -2.9933 0
M  V30 11 H 4.7503 4.0264 -1.6202 0
M  V30 12 H 3.6550 4.7174 -2.9277 0
M  V30 13 H 2.7857 4.8529 -0.7502 0
M  V30 14 H 0.8908 4.8987 -2.2928 0
M  V30 15 H 0.1774 3.4478 -1.5891 0
M  V30 16 H 0.6938 6.0147 -0.0575 0
M  V30 17 H -0.8691 5.5378 -0.7460 0
M  V30 18 C 0.2682 -1.2657 6.3392 0
M  V30 19 C -1.0350 -0.5099 6.1779 0
M  V30 20 C -0.7764 0.9378 5.7695 0
M  V30 21 O -0.0984 0.9217 4.5698 0
M  V30 22 C 0.2058 2.1809 4.0744 0
M  V30 23 C 1.6810 2.3701 4.0426 0
M  V30 24 C 2.0927 3.7194 3.5154 0
M  V30 25 H -0.0035 -2.3153 6.5736 0
M  V30 26 H 0.8231 -0.7977 7.1770 0
M  V30 27 H -1.5864 -1.0553 5.3668 0
M  V30 28 H -1.7374 1.4771 5.7619 0
M  V30 29 H -0.0862 1.3397 6.5629 0
M  V30 30 H -0.2000 2.9067 4.8172 0
M  V30 31 H 2.1374 2.2260 5.0309 0
M  V30 32 H 2.2011 1.6311 3.3722 0
M  V30 33 H 1.5883 4.5019 4.1366 0
M  V30 34 H 3.1741 3.9046 3.6145 0
M  V30 35 C 1.0427 -3.9065 -3.1328 0
M  V30 36 C 2.4657 -3.6634 -3.5927 0
M  V30 37 C 2.5037 -2.6377 -4.7223 0
M  V30 38 O 1.9646 -1.4636 -4.2427 0
M  V30 39 C 1.9350 -0.4335 -5.1709 0
M  V30 40 C 0.5258 -0.0718 -5.4816 0
M  V30 41 C 0.4097 1.0435 -6.4870 0
M  V30 42 H 1.1042 -4.6098 -2.2771 0
M  V30 43 H 0.4902 -4.3551 -3.9826 0
M  V30 44 H 2.9988 -3.2709 -2.6865 0
M  V30 45 H 3.5382 -2.5649 -5.0953 0
M  V30 46 H 1.8121 -3.0520 -5.5080 0
M  V30 47 H 2.3777 -0.8520 -6.1048 0
M  V30 48 H -0.0510 -0.9325 -5.8450 0
M  V30 49 H -0.0388 0.2964 -4.5806 0
M  V30 50 H 0.9716 0.7402 -7.4062 0
M  V30 51 H -0.6283 1.2198 -6.8109 0
M  V30 52 C -3.6345 1.6387 1.8534 0
M  V30 53 C -4.2483 0.3067 1.4733 0
M  V30 54 C -4.4228 0.2011 -0.0393 0
M  V30 55 O -3.1766 0.3184 -0.6157 0
M  V30 56 C -3.1835 0.2401 -2.0004 0
M  V30 57 C -2.7446 1.5364 -2.5835 0
M  V30 58 C -2.7266 1.5313 -4.0894 0
M  V30 59 H -3.4838 1.6137 2.9522 0
M  V30 60 H -4.3535 2.4314 1.5644 0
M  V30 61 H -3.5183 -0.4626 1.8400 0
M  V30 62 H -4.9620 -0.7330 -0.2658 0
M  V30 63 H -5.0316 1.1052 -0.3207 0
M  V30 64 H -4.2500 0.0959 -2.2921 0
M  V30 65 H -3.3675 2.3743 -2.2435 0
M  V30 66 H -1.6957 1.8153 -2.2867 0
M  V30 67 H -3.7470 1.2411 -4.4464 0
M  V30 68 H -2.5279 2.5267 -4.5173 0
M  V30 69 C -0.0077 -5.1933 0.2714 0
M  V30 70 C -1.4879 -4.9359 0.4666 0
M  V30 71 C -1.8413 -4.8964 1.9509 0
M  V30 72 O -1.1137 -3.8791 2.5296 0
M  V30 73 C -1.3369 -3.7264 3.8899 0
M  V30 74 C -0.0913 -4.0291 4.6448 0
M  V30 75 C -0.2538 -3.8860 6.1352 0
M  V30 76 H 0.1788 -5.1459 -0.8211 0
M  V30 77 H 0.2105 -6.2033 0.6728 0
M  V30 78 H -1.6721 -3.9361 -0.0087 0
M  V30 79 H -2.9356 -4.8094 2.0487 0
M  V30 80 H -1.4691 -5.8771 2.3595 0
M  V30 81 H -2.0833 -4.5075 4.1658 0
M  V30 82 H 0.2880 -5.0367 4.4290 0
M  V30 83 H 0.7566 -3.3374 4.3827 0
M  V30 84 H -1.1018 -4.5427 6.4552 0
M  V30 85 H 0.6277 -4.2348 6.6962 0
M  V30 END ATOM
M  V30 BEGIN BOND
M  V30 1 1 1 2
M  V30 2 1 2 3
M  V30 3 1 3 4
M  V30 4 1 4 5
M  V30 5 1 5 6
M  V30 6 1 6 7
M  V30 7 1 1 8
M  V30 8 1 1 9
M  V30 9 1 2 10
M  V30 10 1 3 11
M  V30 11 1 3 12
M  V30 12 1 5 13
M  V30 13 1 6 14
M  V30 14 1 6 15
M  V30 15 1 7 16
M  V30 16 1 7 17
M  V30 17 1 18 19
M  V30 18 1 19 20
M  V30 19 1 20 21
M  V30 20 1 21 22
M  V30 21 1 22 23
M  V30 22 1 23 24
M  V30 23 1 18 25
M  V30 24 1 18 26
M  V30 25 1 19 27
M  V30 26 1 20 28
M  V30 27 1 20 29
M  V30 28 1 22 30
M  V30 29 1 23 31
M  V30 30 1 23 32
M  V30 31 1 24 33
M  V30 32 1 24 34
M  V30 33 1 35 36
M  V30 34 1 36 37
M  V30 35 1 37 38
M  V30 36 1 38 39
M  V30 37 1 39 40
M  V30 38 1 40 41
M  V30 39 1 35 42
M  V30 40 1 35 43
M  V30 41 1 36 44
M  V30 42 1 37 45
M  V30 43 1 37 46
M  V30 44 1 39 47
M  V30 45 1 40 48
M  V30 46 1 40 49
M  V30 47 1 41 50
M  V30 48 1 41 51
M  V30 49 1 52 53
M  V30 50 1 53 54
M  V30 51 1 54 55
M  V30 52 1 55 56
M  V30 53 1 56 57
M  V30 54 1 57 58
M  V30 55 1 52 59
M  V30 56 1 52 60
M  V30 57 1 53 61
M  V30 58 1 54 62
M  V30 59 1 54 63
M  V30 60 1 56 64
M  V30 61 1 57 65
M  V30 62 1 57 66
M  V30 63 1 58 67
M  V30 64 1 58 68
M  V30 65 1 69 70
M  V30 66 1 70 71
M  V30 67 1 71 72
M  V30 68 1 72 73
M  V30 69 1 73 74
M  V30 70 1 74 75
M  V30 71 1 69 76
M  V30 72 1 69 77
M  V30 73 1 70 78
M  V30 74 1 71 79
M  V30 75 1 71 80
M  V30 76 1 73 81
M  V30 77 1 74 82
M  V30 78 1 74 83
M  V30 79 1 75 84
M  V30 80 1 75 85
M  V30 81 1 35 69
M  V30 82 1 18 73
M  V30 83 1 22 52
M  V30 84 1 1 36
M  V30 85 1 53 70
M  V30 86 1 7 58
M  V30 87 1 19 75
M  V30 88 1 41 56
M  V30 89 1 5 24
M  V30 90 1 2 39
M  V30 END BOND
M  V30 END CTAB
M  END

$$$$
