
     RDKit          3D

  0  0  0  0  0  0  0  0  0  0999 V3000
M  V30 BEGIN CTAB
M  V30 COUNTS 85 90 0 0 0
M  V30 BEGIN ATOM
M  V30 1 C -1.4775 2.3542 0.6741 0
M  V30 2 C -2.4718 1.6146 -0.1976 0
M  V30 3 C -1.7520 0.7474 -1.2269 0
M  V30 4 O -0.9724 -0.1591 -0.5416 0
M  V30 5 C -0.2546 -1.0200 -1.3584 0
M  V30 6 C 1.2038 -0.7803 -1.1899 0
M  V30 7 C 2.0538 -1.6797 -2.0482 0
M  V30 8 H -2.0719 2.9084 1.4291 0
M  V30 9 H -0.9122 3.0478 0.0197 0
M  V30 10 H -3.0597 0.9757 0.5134 0
M  V30 11 H -2.5037 0.3082 -1.9026 0
M  V30 12 H -1.0727 1.4584 -1.7749 0
M  V30 13 H -0.5133 -0.7340 -2.4046 0
M  V30 14 H 1.4776 0.2627 -1.3972 0
M  V30 15 H 1.5586 -0.9702 -0.1391 0
M  V30 16 H 1.7326 -1.5469 -3.1121 0
M  V30 17 H 3.1222 -1.4129 -2.0189 0
M  V30 18 C -0.4997 -2.0981 0.1582 0
M  V30 19 C 0.9881 -2.0307 -0.1200 0
M  V30 20 C 1.3994 -0.6210 -0.5363 0
M  V30 21 O 1.0821 0.2325 0.4980 0
M  V30 22 C 1.4035 1.5597 0.2558 0
M  V30 23 C 0.1633 2.3793 0.1999 0
M  V30 24 C 0.4301 3.8382 -0.0618 0
M  V30 25 H -0.7075 -3.1290 0.5114 0
M  V30 26 H -1.0265 -1.8859 -0.7938 0
M  V30 27 H 1.4762 -2.3128 0.8503 0
M  V30 28 H 2.4625 -0.6371 -0.8264 0
M  V30 29 H 0.7379 -0.3777 -1.4141 0
M  V30 30 H 1.8556 1.5826 -0.7632 0
M  V30 31 H -0.5416 2.0108 -0.5571 0
M  V30 32 H -0.4137 2.3637 1.1658 0
M  V30 33 H 1.0215 3.9171 -1.0088 0
M  V30 34 H -0.4917 4.4171 -0.2313 0
M  V30 35 C -1.4419 2.3686 -0.5605 0
M  V30 36 C -0.1181 2.5638 0.1502 0
M  V30 37 C 0.0902 1.4903 1.2150 0
M  V30 38 O 0.0789 0.2649 0.5846 0
M  V30 39 C 0.2591 -0.8128 1.4388 0
M  V30 40 C -0.9667 -1.6556 1.4567 0
M  V30 41 C -0.8492 -2.8505 2.3659 0
M  V30 42 H -1.4907 3.1428 -1.3534 0
M  V30 43 H -2.2463 2.5098 0.1890 0
M  V30 44 H 0.6579 2.4750 -0.6556 0
M  V30 45 H 1.0101 1.7253 1.7746 0
M  V30 46 H -0.8202 1.5602 1.8734 0
M  V30 47 H 0.3705 -0.3776 2.4593 0
M  V30 48 H -1.8578 -1.0824 1.7449 0
M  V30 49 H -1.2134 -2.0881 0.4477 0
M  V30 50 H -0.5853 -2.4817 3.3892 0
M  V30 51 H -1.7990 -3.3975 2.4767 0
M  V30 52 C 1.6607 2.7327 0.1582 0
M  V30 53 C 0.1729 2.6652 -0.1200 0
M  V30 54 C -0.2384 1.2556 -0.5363 0
M  V30 55 O 0.0789 0.4021 0.4980 0
M  V30 56 C -0.2425 -0.9251 0.2558 0
M  V30 57 C 0.9977 -1.7448 0.1999 0
M  V30 58 C 0.7309 -3.2037 -0.0618 0
M  V30 59 H 1.8685 3.7635 0.5114 0
M  V30 60 H 2.1875 2.5204 -0.7938 0
M  V30 61 H -0.3152 2.9474 0.8503 0
M  V30 62 H -1.3015 1.2717 -0.8264 0
M  V30 63 H 0.4231 1.0123 -1.4141 0
M  V30 64 H -0.6946 -0.9481 -0.7632 0
M  V30 65 H 1.7026 -1.3763 -0.5571 0
M  V30 66 H 1.5747 -1.7291 1.1658 0
M  V30 67 H 0.1395 -3.2825 -1.0088 0
M  V30 68 H 1.6527 -3.7825 -0.2313 0
M  V30 69 C 2.6674 -0.8326 0.0580 0
M  V30 70 C 1.9985 -1.1108 -1.2726 0
M  V30 71 C 0.5437 -1.5271 -1.0726 0
M  V30 72 O -0.1059 -0.4927 -0.4345 0
M  V30 73 C -1.4487 -0.7350 -0.1860 0
M  V30 74 C -1.6906 -0.7908 1.2807 0
M  V30 75 C -3.1313 -1.0525 1.6327 0
M  V30 76 H 3.6933 -0.4793 -0.1731 0
M  V30 77 H 2.6887 -1.7846 0.6255 0
M  V30 78 H 2.0567 -0.1405 -1.8334 0
M  V30 79 H 0.1244 -1.8172 -2.0496 0
M  V30 80 H 0.5917 -2.4049 -0.3694 0
M  V30 81 H -1.6542 -1.7540 -0.5894 0
M  V30 82 H -1.0664 -1.5479 1.7737 0
M  V30 83 H -1.4407 0.1750 1.8011 0
M  V30 84 H -3.4447 -1.9995 1.1251 0
M  V30 85 H -3.2834 -1.2220 2.7105 0
M  V30 END ATOM
M  V30 BEGIN BOND
M  V30 1 1 1 2
M  V30 2 1 2 3
M  V30 3 1 3 4
M  V30 4 1 4 5
M  V30 5 1 5 6
M  V30 6 1 6 7
M  V30 7 1 1 8
M  V30 8 1 1 9
M  V30 9 1 2 10
M  V30 10 1 3 11
M  V30 11 1 3 12
M  V30 12 1 5 13
M  V30 13 1 6 14
M  V30 14 1 6 15
M  V30 15 1 7 16
M  V30 16 1 7 17
M  V30 17 1 18 19
M  V30 18 1 19 20
M  V30 19 1 20 21
M  V30 20 1 21 22
M  V30 21 1 22 23
M  V30 22 1 23 24
M  V30 23 1 18 25
M  V30 24 1 18 26
M  V30 25 1 19 27
M  V30 26 1 20 28
M  V30 27 1 20 29
M  V30 28 1 22 30
M  V30 29 1 23 31
M  V30 30 1 23 32
M  V30 31 1 24 33
M  V30 32 1 24 34
M  V30 33 1 35 36
M  V30 34 1 36 37
M  V30 35 1 37 38
M  V30 36 1 38 39
M  V30 37 1 39 40
M  V30 38 1 40 41
M  V30 39 1 35 42
M  V30 40 1 35 43
M  V30 41 1 36 44
M  V30 42 1 37 45
M  V30 43 1 37 46
M  V30 44 1 39 47
M  V30 45 1 40 48
M  V30 46 1 40 49
M  V30 47 1 41 50
M  V30 48 1 41 51
M  V30 49 1 52 53
M  V30 50 1 53 54
M  V30 51 1 54 55
M  V30 52 1 55 56
M  V30 53 1 56 57
M  V30 54 1 57 58
M  V30 55 1 52 59
M  V30 56 1 52 60
M  V30 57 1 53 61
M  V30 58 1 54 62
M  V30 59 1 54 63
M  V30 60 1 56 64
M  V30 61 1 57 65
M  V30 62 1 57 66
M  V30 63 1 58 67
M  V30 64 1 58 68
M  V30 65 1 69 70
M  V30 66 1 70 71
M  V30 67 1 71 72
M  V30 68 1 72 73
M  V30 69 1 73 74
M  V30 70 1 74 75
M  V30 71 1 69 76
M  V30 72 1 69 77
M  V30 73 1 70 78
M  V30 74 1 71 79
M  V30 75 1 71 80
M  V30 76 1 73 81
M  V30 77 1 74 82
M  V30 78 1 74 83
M  V30 79 1 75 84
M  V30 80 1 75 85
M  V30 81 1 1 35
M  V30 82 1 18 69
M  V30 83 1 19 52
M  V30 84 1 7 73
M  V30 85 1 22 53
M  V30 86 1 2 36
M  V30 87 1 58 70
M  V30 88 1 24 56
M  V30 89 1 41 75
M  V30 90 1 5 39
M  V30 END BOND
M  V30 END CTAB
M  END

$$$$
