
     RDKit          3D

  0  0  0  0  0  0  0  0  0  0999 V3000
M  V30 BEGIN CTAB
M  V30 COUNTS 85 90 0 0 0
M  V30 BEGIN ATOM
M  V30 1 C 0.5058 2.9414 1.1790 0
M  V30 2 C -0.9431 2.4985 1.1864 0
M  V30 3 C -1.2697 1.6879 -0.0650 0
M  V30 4 O -0.4471 0.5823 -0.0764 0
M  V30 5 C -0.6358 -0.2525 -1.1678 0
M  V30 6 C 0.5894 -0.2685 -2.0113 0
M  V30 7 C 0.4621 -1.1555 -3.2218 0
M  V30 8 H 0.6794 3.4662 2.1408 0
M  V30 9 H 0.6403 3.6261 0.3177 0
M  V30 10 H -1.0459 1.8626 2.1053 0
M  V30 11 H -2.3505 1.4727 -0.0714 0
M  V30 12 H -0.9790 2.3566 -0.9227 0
M  V30 13 H -1.4437 0.2181 -1.7753 0
M  V30 14 H 0.8756 0.7383 -2.3433 0
M  V30 15 H 1.4908 -0.6608 -1.4638 0
M  V30 16 H -0.4354 -0.8223 -3.8017 0
M  V30 17 H 1.3179 -1.0645 -3.9095 0
M  V30 18 C 2.0342 -2.5218 0.0832 0
M  V30 19 C 2.5949 -1.4777 -0.8606 0
M  V30 20 C 1.4736 -0.7756 -1.6219 0
M  V30 21 O 0.6517 -0.1701 -0.6962 0
M  V30 22 C -0.4206 0.5119 -1.2516 0
M  V30 23 C -1.6975 -0.1338 -0.8446 0
M  V30 24 C -2.9132 0.5513 -1.4110 0
M  V30 25 H 2.8982 -2.9399 0.6394 0
M  V30 26 H 1.5404 -3.2985 -0.5347 0
M  V30 27 H 3.1361 -0.7511 -0.1985 0
M  V30 28 H 1.9248 -0.1001 -2.3666 0
M  V30 29 H 0.8996 -1.6079 -2.1170 0
M  V30 30 H -0.3264 0.3812 -2.3550 0
M  V30 31 H -1.7312 -1.1951 -1.1244 0
M  V30 32 H -1.8565 -0.1221 0.2693 0
M  V30 33 H -2.8033 0.5859 -2.5243 0
M  V30 34 H -3.8452 -0.0027 -1.2158 0
M  V30 35 C 1.6885 -1.1595 1.6741 0
M  V30 36 C 0.2363 -1.1235 2.1045 0
M  V30 37 C -0.3643 0.2607 1.8740 0
M  V30 38 O -0.2728 0.5401 0.5277 0
M  V30 39 C -0.7853 1.7783 0.1703 0
M  V30 40 C 0.3058 2.6491 -0.3438 0
M  V30 41 C -0.1729 4.0170 -0.7534 0
M  V30 42 H 2.0323 -2.2049 1.8136 0
M  V30 43 H 2.2475 -0.4619 2.3296 0
M  V30 44 H -0.2748 -1.8867 1.4597 0
M  V30 45 H -1.3843 0.2743 2.2911 0
M  V30 46 H 0.3163 0.9638 2.4304 0
M  V30 47 H -1.1530 2.2404 1.1161 0
M  V30 48 H 1.1189 2.7661 0.3849 0
M  V30 49 H 0.7994 2.2320 -1.2649 0
M  V30 50 H -0.6923 4.4786 0.1240 0
M  V30 51 H 0.6531 4.6993 -1.0096 0
M  V30 52 C -0.5039 -2.0636 -1.6860 0
M  V30 53 C -1.3072 -0.8186 -2.0024 0
M  V30 54 C -1.6624 -0.0623 -0.7251 0
M  V30 55 O -0.4841 0.2916 -0.1043 0
M  V30 56 C -0.6564 0.9916 1.0806 0
M  V30 57 C -0.1387 0.1905 2.2222 0
M  V30 58 C -0.2916 0.8855 3.5495 0
M  V30 59 H -0.2340 -2.5201 -2.6604 0
M  V30 60 H -1.1541 -2.7376 -1.0929 0
M  V30 61 H -0.6347 -0.1987 -2.6527 0
M  V30 62 H -2.3285 0.7756 -0.9873 0
M  V30 63 H -2.1900 -0.8203 -0.0814 0
M  V30 64 H -1.7585 1.0855 1.2215 0
M  V30 65 H -0.6178 -0.7955 2.2859 0
M  V30 66 H 0.9622 -0.0265 2.1390 0
M  V30 67 H -1.3725 1.1443 3.6818 0
M  V30 68 H -0.0283 0.2398 4.4023 0
M  V30 69 C 1.0334 1.1624 2.1228 0
M  V30 70 C 2.2665 0.7195 1.3620 0
M  V30 71 C 2.0587 -0.6624 0.7483 0
M  V30 72 O 0.9861 -0.5832 -0.1133 0
M  V30 73 C 0.6803 -1.7777 -0.7481 0
M  V30 74 C -0.6638 -2.2496 -0.3197 0
M  V30 75 C -1.0690 -3.5474 -0.9676 0
M  V30 76 H 1.2384 2.1915 2.4829 0
M  V30 77 H 0.8947 0.4607 2.9697 0
M  V30 78 H 2.4022 1.4908 0.5583 0
M  V30 79 H 3.0073 -0.9902 0.2929 0
M  V30 80 H 1.7708 -1.3200 1.6155 0
M  V30 81 H 1.4218 -2.5209 -0.3725 0
M  V30 82 H -0.7329 -2.3656 0.7701 0
M  V30 83 H -1.4851 -1.5286 -0.5875 0
M  V30 84 H -0.2750 -4.3055 -0.7492 0
M  V30 85 H -2.0027 -3.9586 -0.5522 0
M  V30 END ATOM
M  V30 BEGIN BOND
M  V30 1 1 1 2
M  V30 2 1 2 3
M  V30 3 1 3 4
M  V30 4 1 4 5
M  V30 5 1 5 6
M  V30 6 1 6 7
M  V30 7 1 1 8
M  V30 8 1 1 9
M  V30 9 1 2 10
M  V30 10 1 3 11
M  V30 11 1 3 12
M  V30 12 1 5 13
M  V30 13 1 6 14
M  V30 14 1 6 15
M  V30 15 1 7 16
M  V30 16 1 7 17
M  V30 17 1 18 19
M  V30 18 1 19 20
M  V30 19 1 20 21
M  V30 20 1 21 22
M  V30 21 1 22 23
M  V30 22 1 23 24
M  V30 23 1 18 25
M  V30 24 1 18 26
M  V30 25 1 19 27
M  V30 26 1 20 28
M  V30 27 1 20 29
M  V30 28 1 22 30
M  V30 29 1 23 31
M  V30 30 1 23 32
M  V30 31 1 24 33
M  V30 32 1 24 34
M  V30 33 1 35 36
M  V30 34 1 36 37
M  V30 35 1 37 38
M  V30 36 1 38 39
M  V30 37 1 39 40
M  V30 38 1 40 41
M  V30 39 1 35 42
M  V30 40 1 35 43
M  V30 41 1 36 44
M  V30 42 1 37 45
M  V30 43 1 37 46
M  V30 44 1 39 47
M  V30 45 1 40 48
M  V30 46 1 40 49
M  V30 47 1 41 50
M  V30 48 1 41 51
M  V30 49 1 52 53
M  V30 50 1 53 54
M  V30 51 1 54 55
M  V30 52 1 55 56
M  V30 53 1 56 57
M  V30 54 1 57 58
M  V30 55 1 52 59
M  V30 56 1 52 60
M  V30 57 1 53 61
M  V30 58 1 54 62
M  V30 59 1 54 63
M  V30 60 1 56 64
M  V30 61 1 57 65
M  V30 62 1 57 66
M  V30 63 1 58 67
M  V30 64 1 58 68
M  V30 65 1 69 70
M  V30 66 1 70 71
M  V30 67 1 71 72
M  V30 68 1 72 73
M  V30 69 1 73 74
M  V30 70 1 74 75
M  V30 71 1 69 76
M  V30 72 1 69 77
M  V30 73 1 70 78
M  V30 74 1 71 79
M  V30 75 1 71 80
M  V30 76 1 73 81
M  V30 77 1 74 82
M  V30 78 1 74 83
M  V30 79 1 75 84
M  V30 80 1 75 85
M  V30 81 1 35 69
M  V30 82 1 18 70
M  V30 83 1 24 52
M  V30 84 1 1 39
M  V30 85 1 58 75
M  V30 86 1 5 53
M  V30 87 1 19 73
M  V30 88 1 36 56
M  V30 89 1 7 22
M  V30 90 1 2 41
M  V30 END BOND
M  V30 END CTAB
M  END

$$$$
