
     RDKit          3D

  0  0  0  0  0  0  0  0  0  0999 V3000
M  V30 BEGIN CTAB
M  V30 COUNTS 85 90 0 0 0
M  V30 BEGIN ATOM
M  V30 1 C -0.3927 -4.7798 2.8687 0
M  V30 2 C 0.9311 -5.4045 2.4778 0
M  V30 3 C 0.9116 -5.8493 1.0179 0
M  V30 4 O 0.6778 -4.7349 0.2417 0
M  V30 5 C 0.6337 -4.9927 -1.1204 0
M  V30 6 C -0.7305 -4.7151 -1.6447 0
M  V30 7 C -0.8596 -4.9732 -3.1228 0
M  V30 8 H -0.2787 -4.4295 3.9151 0
M  V30 9 H -1.1686 -5.5677 2.7911 0
M  V30 10 H 1.6901 -4.5924 2.6318 0
M  V30 11 H 1.8493 -6.3868 0.8025 0
M  V30 12 H 0.0197 -6.5315 0.9387 0
M  V30 13 H 0.8079 -6.0886 -1.2289 0
M  V30 14 H -1.5009 -5.2949 -1.1192 0
M  V30 15 H -1.0373 -3.6403 -1.5150 0
M  V30 16 H -0.5485 -6.0305 -3.3176 0
M  V30 17 H -1.8982 -4.8922 -3.4812 0
M  V30 18 C 1.1524 2.1132 -5.1221 0
M  V30 19 C 1.5295 3.5582 -5.3779 0
M  V30 20 C 0.8603 4.4819 -4.3638 0
M  V30 21 O 1.2863 4.1070 -3.1080 0
M  V30 22 C 0.7529 4.8680 -2.0785 0
M  V30 23 C -0.1104 4.0182 -1.2150 0
M  V30 24 C -0.7296 4.7758 -0.0701 0
M  V30 25 H 1.7220 1.5049 -5.8541 0
M  V30 26 H 0.0600 2.0202 -5.2861 0
M  V30 27 H 2.6454 3.5899 -5.2628 0
M  V30 28 H 1.0764 5.5256 -4.6440 0
M  V30 29 H -0.2385 4.2527 -4.4499 0
M  V30 30 H 0.0878 5.6179 -2.5670 0
M  V30 31 H -0.9111 3.5290 -1.7853 0
M  V30 32 H 0.4547 3.1762 -0.7273 0
M  V30 33 H -1.2952 5.6431 -0.4952 0
M  V30 34 H -1.4672 4.1777 0.4882 0
M  V30 35 C -0.7461 2.7195 4.7926 0
M  V30 36 C -1.4670 2.2487 3.5460 0
M  V30 37 C -1.5251 3.3589 2.5002 0
M  V30 38 O -0.2297 3.7063 2.1832 0
M  V30 39 C -0.1295 4.7139 1.2354 0
M  V30 40 C 0.4947 5.9202 1.8422 0
M  V30 41 C 0.6377 7.0632 0.8721 0
M  V30 42 H -0.6913 1.8455 5.4736 0
M  V30 43 H -1.3482 3.5375 5.2366 0
M  V30 44 H -0.8580 1.3846 3.1694 0
M  V30 45 H -2.1417 3.0127 1.6549 0
M  V30 46 H -2.0065 4.2270 3.0312 0
M  V30 47 H -1.1773 4.9876 0.9697 0
M  V30 48 H -0.0598 6.2742 2.7214 0
M  V30 49 H 1.5392 5.7301 2.2150 0
M  V30 50 H -0.3748 7.2882 0.4512 0
M  V30 51 H 0.9783 7.9929 1.3550 0
M  V30 52 C 1.0549 0.6016 -5.5485 0
M  V30 53 C 1.0850 -0.5159 -6.5711 0
M  V30 54 C 1.4347 -1.8469 -5.9111 0
M  V30 55 O 0.4706 -2.1123 -4.9627 0
M  V30 56 C 0.6631 -3.3025 -4.2774 0
M  V30 57 C 0.9261 -3.0229 -2.8401 0
M  V30 58 C 1.1473 -4.2705 -2.0260 0
M  V30 59 H 0.7357 1.5155 -6.0902 0
M  V30 60 H 2.0816 0.7116 -5.1451 0
M  V30 61 H 0.0462 -0.5474 -6.9947 0
M  V30 62 H 1.5459 -2.6102 -6.6982 0
M  V30 63 H 2.4104 -1.6564 -5.3829 0
M  V30 64 H 1.5940 -3.7494 -4.6982 0
M  V30 65 H 1.7870 -2.3559 -2.6999 0
M  V30 66 H 0.0682 -2.5001 -2.3334 0
M  V30 67 H 1.9845 -4.8459 -2.4958 0
M  V30 68 H 1.4689 -4.0557 -0.9945 0
M  V30 69 C -0.5556 -3.8500 4.0904 0
M  V30 70 C -0.8514 -2.8882 2.9577 0
M  V30 71 C -1.3467 -1.5492 3.4974 0
M  V30 72 O -0.3566 -1.0277 4.3016 0
M  V30 73 C -0.6729 0.1994 4.8654 0
M  V30 74 C -0.7606 0.0699 6.3447 0
M  V30 75 C -1.1028 1.3653 7.0323 0
M  V30 76 H -0.1456 -4.7691 3.6240 0
M  V30 77 H -1.5125 -4.0560 4.6107 0
M  V30 78 H 0.1279 -2.7600 2.4249 0
M  V30 79 H -1.6458 -0.9168 2.6458 0
M  V30 80 H -2.2298 -1.8109 4.1446 0
M  V30 81 H -1.6959 0.4486 4.4986 0
M  V30 82 H -1.4900 -0.6921 6.6501 0
M  V30 83 H 0.2102 -0.2536 6.8126 0
M  V30 84 H -2.0583 1.7481 6.5928 0
M  V30 85 H -1.2942 1.2391 8.1098 0
M  V30 END ATOM
M  V30 BEGIN BOND
M  V30 1 1 1 2
M  V30 2 1 2 3
M  V30 3 1 3 4
M  V30 4 1 4 5
M  V30 5 1 5 6
M  V30 6 1 6 7
M  V30 7 1 1 8
M  V30 8 1 1 9
M  V30 9 1 2 10
M  V30 10 1 3 11
M  V30 11 1 3 12
M  V30 12 1 5 13
M  V30 13 1 6 14
M  V30 14 1 6 15
M  V30 15 1 7 16
M  V30 16 1 7 17
M  V30 17 1 18 19
M  V30 18 1 19 20
M  V30 19 1 20 21
M  V30 20 1 21 22
M  V30 21 1 22 23
M  V30 22 1 23 24
M  V30 23 1 18 25
M  V30 24 1 18 26
M  V30 25 1 19 27
M  V30 26 1 20 28
M  V30 27 1 20 29
M  V30 28 1 22 30
M  V30 29 1 23 31
M  V30 30 1 23 32
M  V30 31 1 24 33
M  V30 32 1 24 34
M  V30 33 1 35 36
M  V30 34 1 36 37
M  V30 35 1 37 38
M  V30 36 1 38 39
M  V30 37 1 39 40
M  V30 38 1 40 41
M  V30 39 1 35 42
M  V30 40 1 35 43
M  V30 41 1 36 44
M  V30 42 1 37 45
M  V30 43 1 37 46
M  V30 44 1 39 47
M  V30 45 1 40 48
M  V30 46 1 40 49
M  V30 47 1 41 50
M  V30 48 1 41 51
M  V30 49 1 52 53
M  V30 50 1 53 54
M  V30 51 1 54 55
M  V30 52 1 55 56
M  V30 53 1 56 57
M  V30 54 1 57 58
M  V30 55 1 52 59
M  V30 56 1 52 60
M  V30 57 1 53 61
M  V30 58 1 54 62
M  V30 59 1 54 63
M  V30 60 1 56 64
M  V30 61 1 57 65
M  V30 62 1 57 66
M  V30 63 1 58 67
M  V30 64 1 58 68
M  V30 65 1 69 70
M  V30 66 1 70 71
M  V30 67 1 71 72
M  V30 68 1 72 73
M  V30 69 1 73 74
M  V30 70 1 74 75
M  V30 71 1 69 76
M  V30 72 1 69 77
M  V30 73 1 70 78
M  V30 74 1 71 79
M  V30 75 1 71 80
M  V30 76 1 73 81
M  V30 77 1 74 82
M  V30 78 1 74 83
M  V30 79 1 75 84
M  V30 80 1 75 85
M  V30 81 1 1 69
M  V30 82 1 18 52
M  V30 83 1 35 73
M  V30 84 1 36 75
M  V30 85 1 22 39
M  V30 86 1 19 53
M  V30 87 1 2 70
M  V30 88 1 5 56
M  V30 89 1 7 58
M  V30 90 1 24 41
M  V30 END BOND
M  V30 END CTAB
M  END

$$$$
