
     RDKit          3D

  0  0  0  0  0  0  0  0  0  0999 V3000
M  V30 BEGIN CTAB
M  V30 COUNTS 85 90 0 0 0
M  V30 BEGIN ATOM
M  V30 1 C -0.9047 2.0717 -1.8089 0
M  V30 2 C -0.3137 0.9266 -2.6056 0
M  V30 3 C 0.9503 0.3942 -1.9358 0
M  V30 4 O 0.6052 -0.0468 -0.6766 0
M  V30 5 C 1.6660 -0.5618 0.0534 0
M  V30 6 C 1.9228 0.2913 1.2448 0
M  V30 7 C 3.0658 -0.2039 2.0912 0
M  V30 8 H -1.8451 2.3598 -2.3219 0
M  V30 9 H -0.1694 2.9011 -1.8223 0
M  V30 10 H -1.1140 0.1400 -2.6176 0
M  V30 11 H 1.4034 -0.3644 -2.5944 0
M  V30 12 H 1.6171 1.2947 -1.8271 0
M  V30 13 H 2.5602 -0.4769 -0.6072 0
M  V30 14 H 2.1175 1.3365 0.9701 0
M  V30 15 H 1.0452 0.3346 1.9476 0
M  V30 16 H 3.9705 -0.2850 1.4373 0
M  V30 17 H 3.3359 0.4977 2.8964 0
M  V30 18 C 1.3640 1.8582 -1.7405 0
M  V30 19 C 0.7268 2.5916 -0.5780 0
M  V30 20 C -0.6599 2.0300 -0.2758 0
M  V30 21 O -0.5138 0.6968 0.0413 0
M  V30 22 C -1.7047 0.0524 0.3413 0
M  V30 23 C -1.9834 -0.9967 -0.6759 0
M  V30 24 C -3.2657 -1.7435 -0.4188 0
M  V30 25 H 2.3839 2.2786 -1.8570 0
M  V30 26 H 0.7437 2.0541 -2.6381 0
M  V30 27 H 1.4193 2.4173 0.2877 0
M  V30 28 H -1.1282 2.6524 0.5037 0
M  V30 29 H -1.2173 2.1047 -1.2510 0
M  V30 30 H -2.5028 0.8245 0.2405 0
M  V30 31 H -2.0149 -0.5867 -1.6941 0
M  V30 32 H -1.1904 -1.7943 -0.7085 0
M  V30 33 H -4.0956 -0.9949 -0.3579 0
M  V30 34 H -3.5338 -2.4267 -1.2402 0
M  V30 35 C -2.0644 1.9429 -0.4266 0
M  V30 36 C -0.8237 2.6178 0.1218 0
M  V30 37 C -0.1661 1.7554 1.1959 0
M  V30 38 O 0.1777 0.5527 0.6175 0
M  V30 39 C 0.7905 -0.3384 1.4857 0
M  V30 40 C -0.0713 -1.5362 1.6741 0
M  V30 41 C 0.5274 -2.5543 2.6085 0
M  V30 42 H -2.4460 2.5967 -1.2374 0
M  V30 43 H -2.7950 1.8641 0.4034 0
M  V30 44 H -0.1426 2.7323 -0.7627 0
M  V30 45 H 0.6687 2.3225 1.6385 0
M  V30 46 H -0.9805 1.5676 1.9500 0
M  V30 47 H 0.8438 0.1829 2.4699 0
M  V30 48 H -1.0724 -1.2714 2.0395 0
M  V30 49 H -0.2513 -2.0990 0.7165 0
M  V30 50 H 0.7463 -2.0447 3.5807 0
M  V30 51 H -0.1671 -3.3756 2.8467 0
M  V30 52 C 1.2772 -2.3731 0.7911 0
M  V30 53 C 1.5830 -2.1078 -0.6689 0
M  V30 54 C 0.3433 -1.5993 -1.3998 0
M  V30 55 O -0.0545 -0.4295 -0.7896 0
M  V30 56 C -1.1807 0.1496 -1.3552 0
M  V30 57 C -2.3002 0.1428 -0.3757 0
M  V30 58 C -3.5640 0.7566 -0.9181 0
M  V30 59 H 2.2339 -2.6773 1.2630 0
M  V30 60 H 0.5311 -3.1920 0.8316 0
M  V30 61 H 2.3836 -1.3216 -0.6577 0
M  V30 62 H 0.5786 -1.5159 -2.4732 0
M  V30 63 H -0.4417 -2.3839 -1.2112 0
M  V30 64 H -1.4785 -0.5204 -2.1953 0
M  V30 65 H -2.5286 -0.8694 -0.0164 0
M  V30 66 H -2.0710 0.7356 0.5529 0
M  V30 67 H -3.8346 0.2156 -1.8598 0
M  V30 68 H -4.4236 0.6332 -0.2402 0
M  V30 69 C -0.4354 -2.7052 -0.6765 0
M  V30 70 C -0.8307 -2.4257 0.7591 0
M  V30 71 C 0.1710 -1.4865 1.4253 0
M  V30 72 O 0.1831 -0.3085 0.7102 0
M  V30 73 C 1.0572 0.6467 1.2073 0
M  V30 74 C 2.1341 0.9128 0.2161 0
M  V30 75 C 3.1278 1.9427 0.6850 0
M  V30 76 H -1.2381 -3.3387 -1.1065 0
M  V30 77 H 0.5336 -3.2432 -0.6564 0
M  V30 78 H -1.8403 -1.9404 0.6912 0
M  V30 79 H -0.0938 -1.3897 2.4907 0
M  V30 80 H 1.1681 -1.9925 1.2944 0
M  V30 81 H 1.5413 0.1825 2.0980 0
M  V30 82 H 2.6789 -0.0006 -0.0572 0
M  V30 83 H 1.7408 1.3183 -0.7570 0
M  V30 84 H 3.5436 1.6004 1.6662 0
M  V30 85 H 3.9913 2.0419 0.0083 0
M  V30 END ATOM
M  V30 BEGIN BOND
M  V30 1 1 1 2
M  V30 2 1 2 3
M  V30 3 1 3 4
M  V30 4 1 4 5
M  V30 5 1 5 6
M  V30 6 1 6 7
M  V30 7 1 1 8
M  V30 8 1 1 9
M  V30 9 1 2 10
M  V30 10 1 3 11
M  V30 11 1 3 12
M  V30 12 1 5 13
M  V30 13 1 6 14
M  V30 14 1 6 15
M  V30 15 1 7 16
M  V30 16 1 7 17
M  V30 17 1 18 19
M  V30 18 1 19 20
M  V30 19 1 20 21
M  V30 20 1 21 22
M  V30 21 1 22 23
M  V30 22 1 23 24
M  V30 23 1 18 25
M  V30 24 1 18 26
M  V30 25 1 19 27
M  V30 26 1 20 28
M  V30 27 1 20 29
M  V30 28 1 22 30
M  V30 29 1 23 31
M  V30 30 1 23 32
M  V30 31 1 24 33
M  V30 32 1 24 34
M  V30 33 1 35 36
M  V30 34 1 36 37
M  V30 35 1 37 38
M  V30 36 1 38 39
M  V30 37 1 39 40
M  V30 38 1 40 41
M  V30 39 1 35 42
M  V30 40 1 35 43
M  V30 41 1 36 44
M  V30 42 1 37 45
M  V30 43 1 37 46
M  V30 44 1 39 47
M  V30 45 1 40 48
M  V30 46 1 40 49
M  V30 47 1 41 50
M  V30 48 1 41 51
M  V30 49 1 52 53
M  V30 50 1 53 54
M  V30 51 1 54 55
M  V30 52 1 55 56
M  V30 53 1 56 57
M  V30 54 1 57 58
M  V30 55 1 52 59
M  V30 56 1 52 60
M  V30 57 1 53 61
M  V30 58 1 54 62
M  V30 59 1 54 63
M  V30 60 1 56 64
M  V30 61 1 57 65
M  V30 62 1 57 66
M  V30 63 1 58 67
M  V30 64 1 58 68
M  V30 65 1 69 70
M  V30 66 1 70 71
M  V30 67 1 71 72
M  V30 68 1 72 73
M  V30 69 1 73 74
M  V30 70 1 74 75
M  V30 71 1 69 76
M  V30 72 1 69 77
M  V30 73 1 70 78
M  V30 74 1 71 79
M  V30 75 1 71 80
M  V30 76 1 73 81
M  V30 77 1 74 82
M  V30 78 1 74 83
M  V30 79 1 75 84
M  V30 80 1 75 85
M  V30 81 1 1 18
M  V30 82 1 19 35
M  V30 83 1 7 36
M  V30 84 1 52 69
M  V30 85 1 2 53
M  V30 86 1 5 73
M  V30 87 1 24 75
M  V30 88 1 39 70
M  V30 89 1 22 56
M  V30 90 1 41 58
M  V30 END BOND
M  V30 END CTAB
M  END

$$$$
