
     RDKit          3D

  0  0  0  0  0  0  0  0  0  0999 V3000
M  V30 BEGIN CTAB
M  V30 COUNTS 85 90 0 0 0
M  V30 BEGIN ATOM
M  V30 1 C 1.8147 -4.3677 -5.5729 0
M  V30 2 C 2.6646 -4.0246 -4.3665 0
M  V30 3 C 2.9296 -2.5230 -4.2981 0
M  V30 4 O 1.7119 -1.8848 -4.2038 0
M  V30 5 C 1.8011 -0.5026 -4.1334 0
M  V30 6 C 1.1774 0.1076 -5.3383 0
M  V30 7 C 1.2356 1.6125 -5.3362 0
M  V30 8 H 1.6160 -5.4577 -5.5183 0
M  V30 9 H 2.4017 -4.1112 -6.4776 0
M  V30 10 H 2.0589 -4.3581 -3.4826 0
M  V30 11 H 3.6306 -2.3279 -3.4704 0
M  V30 12 H 3.3888 -2.2682 -5.2938 0
M  V30 13 H 2.8897 -0.2650 -4.1740 0
M  V30 14 H 1.6308 -0.2592 -6.2686 0
M  V30 15 H 0.0829 -0.1355 -5.4333 0
M  V30 16 H 2.3069 1.9169 -5.2254 0
M  V30 17 H 0.8918 2.0542 -6.2849 0
M  V30 18 C -0.6003 -4.6700 -0.0461 0
M  V30 19 C 0.5934 -3.8048 -0.3954 0
M  V30 20 C 1.3408 -4.3711 -1.5997 0
M  V30 21 O 0.4640 -4.4022 -2.6624 0
M  V30 22 C 1.0131 -4.8991 -3.8350 0
M  V30 23 C 0.3360 -6.1685 -4.2134 0
M  V30 24 C 0.8792 -6.7731 -5.4813 0
M  V30 25 H -1.1220 -4.1633 0.7916 0
M  V30 26 H -0.2136 -5.6619 0.2628 0
M  V30 27 H 0.1593 -2.7989 -0.6389 0
M  V30 28 H 2.2540 -3.7747 -1.7579 0
M  V30 29 H 1.5873 -5.4308 -1.3106 0
M  V30 30 H 2.0711 -5.1538 -3.5921 0
M  V30 31 H 0.3916 -6.9203 -3.4150 0
M  V30 32 H -0.7638 -6.0345 -4.4098 0
M  V30 33 H 1.9819 -6.9147 -5.3520 0
M  V30 34 H 0.4676 -7.7739 -5.6875 0
M  V30 35 C -1.9824 0.8324 5.2225 0
M  V30 36 C -2.5002 -0.5874 5.3292 0
M  V30 37 C -2.4603 -1.2836 3.9715 0
M  V30 38 O -1.1500 -1.2990 3.5450 0
M  V30 39 C -0.9628 -1.9071 2.3127 0
M  V30 40 C -0.4836 -0.9067 1.3214 0
M  V30 41 C -0.2569 -1.4925 -0.0474 0
M  V30 42 H -1.9848 1.2466 6.2516 0
M  V30 43 H -2.6762 1.3913 4.5629 0
M  V30 44 H -1.8069 -1.0939 6.0518 0
M  V30 45 H -2.9367 -2.2725 4.0702 0
M  V30 46 H -3.0492 -0.6105 3.2877 0
M  V30 47 H -1.9741 -2.2378 1.9793 0
M  V30 48 H -1.1708 -0.0553 1.2287 0
M  V30 49 H 0.5059 -0.4517 1.6044 0
M  V30 50 H -1.2094 -1.9788 -0.3774 0
M  V30 51 H -0.0286 -0.7276 -0.8065 0
M  V30 52 C -2.3521 1.9671 6.1602 0
M  V30 53 C -3.4099 2.7650 5.4255 0
M  V30 54 C -2.8591 4.1172 4.9809 0
M  V30 55 O -1.7910 3.8813 4.1427 0
M  V30 56 C -1.1869 5.0317 3.6579 0
M  V30 57 C 0.2062 5.1274 4.1710 0
M  V30 58 C 0.9312 6.3557 3.6876 0
M  V30 59 H -2.8062 0.9823 6.3938 0
M  V30 60 H -2.0990 2.5224 7.0857 0
M  V30 61 H -3.6782 2.1371 4.5349 0
M  V30 62 H -3.6825 4.7046 4.5432 0
M  V30 63 H -2.4722 4.5927 5.9251 0
M  V30 64 H -1.7558 5.8835 4.0985 0
M  V30 65 H 0.2445 5.1070 5.2682 0
M  V30 66 H 0.8522 4.2669 3.8419 0
M  V30 67 H 0.3227 7.2509 3.9725 0
M  V30 68 H 1.9121 6.4901 4.1705 0
M  V30 69 C -0.0993 5.1348 1.9948 0
M  V30 70 C -0.6585 3.7427 2.2065 0
M  V30 71 C -0.6525 2.9508 0.9017 0
M  V30 72 O 0.6526 2.8649 0.4678 0
M  V30 73 C 0.8097 2.1651 -0.7193 0
M  V30 74 C 1.3093 3.0772 -1.7830 0
M  V30 75 C 1.5052 2.3888 -3.1080 0
M  V30 76 H -0.0795 5.6211 2.9916 0
M  V30 77 H -0.7823 5.6663 1.3020 0
M  V30 78 H 0.0261 3.2679 2.9583 0
M  V30 79 H -1.1574 1.9865 1.0744 0
M  V30 80 H -1.2274 3.5911 0.1760 0
M  V30 81 H -0.2142 1.8426 -1.0207 0
M  V30 82 H 0.6472 3.9406 -1.9313 0
M  V30 83 H 2.3146 3.5207 -1.5405 0
M  V30 84 H 0.5354 1.9096 -3.3954 0
M  V30 85 H 1.7491 3.0903 -3.9216 0
M  V30 END ATOM
M  V30 BEGIN BOND
M  V30 1 1 1 2
M  V30 2 1 2 3
M  V30 3 1 3 4
M  V30 4 1 4 5
M  V30 5 1 5 6
M  V30 6 1 6 7
M  V30 7 1 1 8
M  V30 8 1 1 9
M  V30 9 1 2 10
M  V30 10 1 3 11
M  V30 11 1 3 12
M  V30 12 1 5 13
M  V30 13 1 6 14
M  V30 14 1 6 15
M  V30 15 1 7 16
M  V30 16 1 7 17
M  V30 17 1 18 19
M  V30 18 1 19 20
M  V30 19 1 20 21
M  V30 20 1 21 22
M  V30 21 1 22 23
M  V30 22 1 23 24
M  V30 23 1 18 25
M  V30 24 1 18 26
M  V30 25 1 19 27
M  V30 26 1 20 28
M  V30 27 1 20 29
M  V30 28 1 22 30
M  V30 29 1 23 31
M  V30 30 1 23 32
M  V30 31 1 24 33
M  V30 32 1 24 34
M  V30 33 1 35 36
M  V30 34 1 36 37
M  V30 35 1 37 38
M  V30 36 1 38 39
M  V30 37 1 39 40
M  V30 38 1 40 41
M  V30 39 1 35 42
M  V30 40 1 35 43
M  V30 41 1 36 44
M  V30 42 1 37 45
M  V30 43 1 37 46
M  V30 44 1 39 47
M  V30 45 1 40 48
M  V30 46 1 40 49
M  V30 47 1 41 50
M  V30 48 1 41 51
M  V30 49 1 52 53
M  V30 50 1 53 54
M  V30 51 1 54 55
M  V30 52 1 55 56
M  V30 53 1 56 57
M  V30 54 1 57 58
M  V30 55 1 52 59
M  V30 56 1 52 60
M  V30 57 1 53 61
M  V30 58 1 54 62
M  V30 59 1 54 63
M  V30 60 1 56 64
M  V30 61 1 57 65
M  V30 62 1 57 66
M  V30 63 1 58 67
M  V30 64 1 58 68
M  V30 65 1 69 70
M  V30 66 1 70 71
M  V30 67 1 71 72
M  V30 68 1 72 73
M  V30 69 1 73 74
M  V30 70 1 74 75
M  V30 71 1 69 76
M  V30 72 1 69 77
M  V30 73 1 70 78
M  V30 74 1 71 79
M  V30 75 1 71 80
M  V30 76 1 73 81
M  V30 77 1 74 82
M  V30 78 1 74 83
M  V30 79 1 75 84
M  V30 80 1 75 85
M  V30 81 1 35 52
M  V30 82 1 18 39
M  V30 83 1 1 19
M  V30 84 1 2 22
M  V30 85 1 56 69
M  V30 86 1 5 24
M  V30 87 1 58 70
M  V30 88 1 36 53
M  V30 89 1 7 75
M  V30 90 1 41 73
M  V30 END BOND
M  V30 END CTAB
M  END

$$$$
