
     RDKit          3D

  0  0  0  0  0  0  0  0  0  0999 V3000
M  V30 BEGIN CTAB
M  V30 COUNTS 85 90 0 0 0
M  V30 BEGIN ATOM
M  V30 1 C 2.3594 -1.0869 0.8391 0
M  V30 2 C 1.6770 -2.4310 0.6863 0
M  V30 3 C 0.2010 -2.2545 0.3402 0
M  V30 4 O 0.1277 -1.5598 -0.8477 0
M  V30 5 C -1.1666 -1.3252 -1.2874 0
M  V30 6 C -1.4448 0.1362 -1.2871 0
M  V30 7 C -2.8367 0.4731 -1.7533 0
M  V30 8 H 3.4321 -1.2980 1.0269 0
M  V30 9 H 1.8936 -0.5733 1.7040 0
M  V30 10 H 2.2209 -2.9368 -0.1549 0
M  V30 11 H -0.2798 -3.2462 0.3380 0
M  V30 12 H -0.2088 -1.6013 1.1603 0
M  V30 13 H -1.8360 -1.7847 -0.5233 0
M  V30 14 H -1.2882 0.5863 -0.2978 0
M  V30 15 H -0.7662 0.7096 -1.9776 0
M  V30 16 H -3.5617 -0.0865 -1.1099 0
M  V30 17 H -3.0821 1.5398 -1.6288 0
M  V30 18 C -2.5595 -0.7872 1.6943 0
M  V30 19 C -2.9549 0.5005 1.0008 0
M  V30 20 C -1.7577 1.4386 0.8734 0
M  V30 21 O -0.7927 0.7908 0.1329 0
M  V30 22 C 0.3625 1.5325 -0.0643 0
M  V30 23 C 1.5107 0.8715 0.6122 0
M  V30 24 C 2.8066 1.6203 0.4443 0
M  V30 25 H -3.4601 -1.4349 1.6929 0
M  V30 26 H -2.2524 -0.5283 2.7275 0
M  V30 27 H -3.3160 0.1831 -0.0132 0
M  V30 28 H -2.1065 2.3982 0.4586 0
M  V30 29 H -1.3766 1.5603 1.9256 0
M  V30 30 H 0.1932 2.5042 0.4557 0
M  V30 31 H 1.3284 0.7230 1.6848 0
M  V30 32 H 1.7214 -0.1574 0.2084 0
M  V30 33 H 2.6529 2.6649 0.8154 0
M  V30 34 H 3.6241 1.2002 1.0516 0
M  V30 35 C 2.7295 -0.8215 -0.7211 0
M  V30 36 C 2.9681 0.6046 -1.1735 0
M  V30 37 C 1.6690 1.2473 -1.6518 0
M  V30 38 O 0.7819 1.2379 -0.5972 0
M  V30 39 C -0.4530 1.7966 -0.8911 0
M  V30 40 C -1.5125 0.7555 -0.8098 0
M  V30 41 C -2.8877 1.2863 -1.1181 0
M  V30 42 H 3.6994 -1.1954 -0.3338 0
M  V30 43 H 2.4002 -1.4012 -1.6067 0
M  V30 44 H 3.3580 1.1344 -0.2643 0
M  V30 45 H 1.9012 2.2423 -2.0650 0
M  V30 46 H 1.2823 0.5520 -2.4482 0
M  V30 47 H -0.3952 2.1205 -1.9565 0
M  V30 48 H -1.3080 -0.0946 -1.4741 0
M  V30 49 H -1.6040 0.3056 0.2175 0
M  V30 50 H -2.8548 1.7654 -2.1291 0
M  V30 51 H -3.6472 0.4911 -1.1844 0
M  V30 52 C -1.6246 1.7068 1.2534 0
M  V30 53 C -2.7498 0.7889 0.8212 0
M  V30 54 C -2.2950 -0.1346 -0.3056 0
M  V30 55 O -1.2397 -0.8852 0.1658 0
M  V30 56 C -0.7207 -1.7770 -0.7609 0
M  V30 57 C 0.6785 -1.4006 -1.0979 0
M  V30 58 C 1.3136 -2.3248 -2.1032 0
M  V30 59 H -2.0113 2.2978 2.1088 0
M  V30 60 H -1.3784 2.3601 0.3923 0
M  V30 61 H -3.0058 0.1947 1.7381 0
M  V30 62 H -3.1648 -0.7119 -0.6587 0
M  V30 63 H -1.9099 0.5580 -1.1051 0
M  V30 64 H -1.3268 -1.6414 -1.6870 0
M  V30 65 H 0.7503 -0.3714 -1.4739 0
M  V30 66 H 1.3654 -1.4328 -0.2072 0
M  V30 67 H 0.6608 -2.3480 -3.0121 0
M  V30 68 H 2.2984 -1.9702 -2.4466 0
M  V30 69 C 0.1849 -2.8363 1.5791 0
M  V30 70 C -0.8927 -1.7728 1.5211 0
M  V30 71 C -0.2771 -0.3764 1.4985 0
M  V30 72 O 0.5227 -0.2873 0.3798 0
M  V30 73 C 1.1521 0.9395 0.2300 0
M  V30 74 C 2.6256 0.7704 0.3446 0
M  V30 75 C 3.3826 2.0636 0.1934 0
M  V30 76 H -0.3354 -3.8147 1.5301 0
M  V30 77 H 0.7215 -2.7144 2.5414 0
M  V30 78 H -1.4461 -1.9746 0.5658 0
M  V30 79 H -1.0893 0.3660 1.5589 0
M  V30 80 H 0.3816 -0.3396 2.4107 0
M  V30 81 H 0.8262 1.5573 1.0992 0
M  V30 82 H 2.9152 0.3042 1.2958 0
M  V30 83 H 3.0505 0.0966 -0.4501 0
M  V30 84 H 2.9884 2.7857 0.9523 0
M  V30 85 H 4.4579 1.9563 0.4073 0
M  V30 END ATOM
M  V30 BEGIN BOND
M  V30 1 1 1 2
M  V30 2 1 2 3
M  V30 3 1 3 4
M  V30 4 1 4 5
M  V30 5 1 5 6
M  V30 6 1 6 7
M  V30 7 1 1 8
M  V30 8 1 1 9
M  V30 9 1 2 10
M  V30 10 1 3 11
M  V30 11 1 3 12
M  V30 12 1 5 13
M  V30 13 1 6 14
M  V30 14 1 6 15
M  V30 15 1 7 16
M  V30 16 1 7 17
M  V30 17 1 18 19
M  V30 18 1 19 20
M  V30 19 1 20 21
M  V30 20 1 21 22
M  V30 21 1 22 23
M  V30 22 1 23 24
M  V30 23 1 18 25
M  V30 24 1 18 26
M  V30 25 1 19 27
M  V30 26 1 20 28
M  V30 27 1 20 29
M  V30 28 1 22 30
M  V30 29 1 23 31
M  V30 30 1 23 32
M  V30 31 1 24 33
M  V30 32 1 24 34
M  V30 33 1 35 36
M  V30 34 1 36 37
M  V30 35 1 37 38
M  V30 36 1 38 39
M  V30 37 1 39 40
M  V30 38 1 40 41
M  V30 39 1 35 42
M  V30 40 1 35 43
M  V30 41 1 36 44
M  V30 42 1 37 45
M  V30 43 1 37 46
M  V30 44 1 39 47
M  V30 45 1 40 48
M  V30 46 1 40 49
M  V30 47 1 41 50
M  V30 48 1 41 51
M  V30 49 1 52 53
M  V30 50 1 53 54
M  V30 51 1 54 55
M  V30 52 1 55 56
M  V30 53 1 56 57
M  V30 54 1 57 58
M  V30 55 1 52 59
M  V30 56 1 52 60
M  V30 57 1 53 61
M  V30 58 1 54 62
M  V30 59 1 54 63
M  V30 60 1 56 64
M  V30 61 1 57 65
M  V30 62 1 57 66
M  V30 63 1 58 67
M  V30 64 1 58 68
M  V30 65 1 69 70
M  V30 66 1 70 71
M  V30 67 1 71 72
M  V30 68 1 72 73
M  V30 69 1 73 74
M  V30 70 1 74 75
M  V30 71 1 69 76
M  V30 72 1 69 77
M  V30 73 1 70 78
M  V30 74 1 71 79
M  V30 75 1 71 80
M  V30 76 1 73 81
M  V30 77 1 74 82
M  V30 78 1 74 83
M  V30 79 1 75 84
M  V30 80 1 75 85
M  V30 81 1 1 69
M  V30 82 1 18 52
M  V30 83 1 35 73
M  V30 84 1 36 75
M  V30 85 1 22 39
M  V30 86 1 19 53
M  V30 87 1 2 70
M  V30 88 1 5 56
M  V30 89 1 7 58
M  V30 90 1 24 41
M  V30 END BOND
M  V30 END CTAB
M  END

$$$$
