
     RDKit          3D

  0  0  0  0  0  0  0  0  0  0999 V3000
M  V30 BEGIN CTAB
M  V30 COUNTS 85 90 0 0 0
M  V30 BEGIN ATOM
M  V30 1 C -1.5367 1.6091 -1.0421 0
M  V30 2 C -0.9847 0.9244 -2.2757 0
M  V30 3 C 0.4688 0.5102 -2.0625 0
M  V30 4 O 0.5060 -0.3593 -0.9940 0
M  V30 5 C 1.7764 -0.8212 -0.6839 0
M  V30 6 C 2.1763 -0.3373 0.6648 0
M  V30 7 C 3.5503 -0.7981 1.0747 0
M  V30 8 H -2.6051 1.8217 -1.2516 0
M  V30 9 H -0.9619 2.5456 -0.8957 0
M  V30 10 H -1.6345 0.0208 -2.4194 0
M  V30 11 H 0.8623 0.1103 -3.0111 0
M  V30 12 H 0.9962 1.4599 -1.7671 0
M  V30 13 H 2.4632 -0.3409 -1.4195 0
M  V30 14 H 2.1374 0.7575 0.7391 0
M  V30 15 H 1.4959 -0.7081 1.4806 0
M  V30 16 H 4.2742 -0.4712 0.2861 0
M  V30 17 H 3.8941 -0.3338 2.0126 0
M  V30 18 C -2.4407 1.0202 1.6628 0
M  V30 19 C -2.6692 -0.3786 1.1274 0
M  V30 20 C -1.9999 -0.5556 -0.2329 0
M  V30 21 O -0.6492 -0.3370 -0.0687 0
M  V30 22 C 0.0910 -0.4657 -1.2345 0
M  V30 23 C 0.6899 0.8455 -1.6019 0
M  V30 24 C 1.5113 0.7877 -2.8629 0
M  V30 25 H -2.9002 1.0500 2.6720 0
M  V30 26 H -2.9423 1.7273 0.9719 0
M  V30 27 H -2.2014 -1.0586 1.8878 0
M  V30 28 H -2.2732 -1.5458 -0.6321 0
M  V30 29 H -2.4199 0.2735 -0.8681 0
M  V30 30 H -0.6420 -0.7247 -2.0338 0
M  V30 31 H -0.0703 1.6298 -1.7146 0
M  V30 32 H 1.3967 1.2369 -0.8187 0
M  V30 33 H 0.8614 0.3858 -3.6807 0
M  V30 34 H 1.8441 1.7818 -3.2014 0
M  V30 35 C -1.3720 0.7538 2.6826 0
M  V30 36 C -0.3167 1.7496 2.2464 0
M  V30 37 C 0.8119 1.0501 1.4937 0
M  V30 38 O 0.2641 0.4402 0.3860 0
M  V30 39 C 1.1835 -0.2401 -0.3984 0
M  V30 40 C 0.8835 -1.6971 -0.3824 0
M  V30 41 C 1.8428 -2.5073 -1.2140 0
M  V30 42 H -2.1803 1.3421 3.1634 0
M  V30 43 H -0.8967 0.0596 3.4044 0
M  V30 44 H -0.8565 2.4647 1.5706 0
M  V30 45 H 1.6035 1.7877 1.2839 0
M  V30 46 H 1.1727 0.2500 2.1986 0
M  V30 47 H 2.1705 -0.1050 0.1024 0
M  V30 48 H 0.8724 -2.1053 0.6369 0
M  V30 49 H -0.1321 -1.9379 -0.8027 0
M  V30 50 H 2.8800 -2.2942 -0.8514 0
M  V30 51 H 1.6979 -3.5930 -1.0963 0
M  V30 52 C 0.6229 -1.2482 1.9808 0
M  V30 53 C 1.8546 -1.4330 1.1182 0
M  V30 54 C 1.4740 -1.5419 -0.3559 0
M  V30 55 O 0.8300 -0.3765 -0.7112 0
M  V30 56 C 0.4235 -0.3358 -2.0366 0
M  V30 57 C -1.0617 -0.2906 -2.1099 0
M  V30 58 C -1.5827 -0.2456 -3.5223 0
M  V30 59 H 0.9841 -1.1161 3.0213 0
M  V30 60 H 0.0070 -2.1646 1.8827 0
M  V30 61 H 2.4735 -0.5143 1.2982 0
M  V30 62 H 2.3813 -1.7760 -0.9360 0
M  V30 63 H 0.7307 -2.3863 -0.3976 0
M  V30 64 H 0.7426 -1.3064 -2.4831 0
M  V30 65 H -1.5268 -1.1397 -1.5919 0
M  V30 66 H -1.4951 0.6232 -1.6168 0
M  V30 67 H -1.1676 -1.1277 -4.0721 0
M  V30 68 H -2.6786 -0.3433 -3.5763 0
M  V30 69 C -2.8361 0.7877 -0.7733 0
M  V30 70 C -1.4066 0.9826 -1.2358 0
M  V30 71 C -0.4650 1.1280 -0.0434 0
M  V30 72 O -0.5563 -0.0240 0.7075 0
M  V30 73 C 0.2533 -0.0314 1.8336 0
M  V30 74 C -0.5864 -0.0634 3.0612 0
M  V30 75 C 0.2231 -0.0721 4.3311 0
M  V30 76 H -3.4439 0.6292 -1.6876 0
M  V30 77 H -3.1430 1.7109 -0.2419 0
M  V30 78 H -1.1630 0.0553 -1.8190 0
M  V30 79 H 0.5427 1.3682 -0.4194 0
M  V30 80 H -0.8930 1.9788 0.5568 0
M  V30 81 H 0.7888 0.9466 1.8304 0
M  V30 82 H -1.2917 0.7773 3.1012 0
M  V30 83 H -1.2290 -0.9847 3.1262 0
M  V30 84 H 0.9001 0.8190 4.3157 0
M  V30 85 H -0.3984 0.0353 5.2343 0
M  V30 END ATOM
M  V30 BEGIN BOND
M  V30 1 1 1 2
M  V30 2 1 2 3
M  V30 3 1 3 4
M  V30 4 1 4 5
M  V30 5 1 5 6
M  V30 6 1 6 7
M  V30 7 1 1 8
M  V30 8 1 1 9
M  V30 9 1 2 10
M  V30 10 1 3 11
M  V30 11 1 3 12
M  V30 12 1 5 13
M  V30 13 1 6 14
M  V30 14 1 6 15
M  V30 15 1 7 16
M  V30 16 1 7 17
M  V30 17 1 18 19
M  V30 18 1 19 20
M  V30 19 1 20 21
M  V30 20 1 21 22
M  V30 21 1 22 23
M  V30 22 1 23 24
M  V30 23 1 18 25
M  V30 24 1 18 26
M  V30 25 1 19 27
M  V30 26 1 20 28
M  V30 27 1 20 29
M  V30 28 1 22 30
M  V30 29 1 23 31
M  V30 30 1 23 32
M  V30 31 1 24 33
M  V30 32 1 24 34
M  V30 33 1 35 36
M  V30 34 1 36 37
M  V30 35 1 37 38
M  V30 36 1 38 39
M  V30 37 1 39 40
M  V30 38 1 40 41
M  V30 39 1 35 42
M  V30 40 1 35 43
M  V30 41 1 36 44
M  V30 42 1 37 45
M  V30 43 1 37 46
M  V30 44 1 39 47
M  V30 45 1 40 48
M  V30 46 1 40 49
M  V30 47 1 41 50
M  V30 48 1 41 51
M  V30 49 1 52 53
M  V30 50 1 53 54
M  V30 51 1 54 55
M  V30 52 1 55 56
M  V30 53 1 56 57
M  V30 54 1 57 58
M  V30 55 1 52 59
M  V30 56 1 52 60
M  V30 57 1 53 61
M  V30 58 1 54 62
M  V30 59 1 54 63
M  V30 60 1 56 64
M  V30 61 1 57 65
M  V30 62 1 57 66
M  V30 63 1 58 67
M  V30 64 1 58 68
M  V30 65 1 69 70
M  V30 66 1 70 71
M  V30 67 1 71 72
M  V30 68 1 72 73
M  V30 69 1 73 74
M  V30 70 1 74 75
M  V30 71 1 69 76
M  V30 72 1 69 77
M  V30 73 1 70 78
M  V30 74 1 71 79
M  V30 75 1 71 80
M  V30 76 1 73 81
M  V30 77 1 74 82
M  V30 78 1 74 83
M  V30 79 1 75 84
M  V30 80 1 75 85
M  V30 81 1 18 69
M  V30 82 1 35 73
M  V30 83 1 41 52
M  V30 84 1 22 58
M  V30 85 1 19 70
M  V30 86 1 1 24
M  V30 87 1 36 75
M  V30 88 1 7 39
M  V30 89 1 2 53
M  V30 90 1 5 56
M  V30 END BOND
M  V30 END CTAB
M  END

$$$$
