
     RDKit          3D

  0  0  0  0  0  0  0  0  0  0999 V3000
M  V30 BEGIN CTAB
M  V30 COUNTS 85 90 0 0 0
M  V30 BEGIN ATOM
M  V30 1 C 1.8288 4.2287 5.4014 0
M  V30 2 C 0.5002 4.8183 5.8288 0
M  V30 3 C -0.5370 4.6824 4.7174 0
M  V30 4 O -0.6911 3.3398 4.4477 0
M  V30 5 C -1.6125 3.0652 3.4481 0
M  V30 6 C -0.9256 2.4498 2.2808 0
M  V30 7 C -1.8630 2.1221 1.1486 0
M  V30 8 H 2.5052 4.3092 6.2770 0
M  V30 9 H 2.2017 4.8312 4.5489 0
M  V30 10 H 0.1947 4.2199 6.7277 0
M  V30 11 H -1.4537 5.2104 5.0266 0
M  V30 12 H -0.0626 5.1731 3.8221 0
M  V30 13 H -2.0021 4.0546 3.1126 0
M  V30 14 H -0.1182 3.0857 1.8943 0
M  V30 15 H -0.4294 1.4717 2.5326 0
M  V30 16 H -2.4026 3.0604 0.8639 0
M  V30 17 H -1.3356 1.7887 0.2407 0
M  V30 18 C -0.2445 1.4737 -4.0565 0
M  V30 19 C -1.3669 0.9535 -3.1817 0
M  V30 20 C -2.2571 -0.0131 -3.9580 0
M  V30 21 O -1.4710 -1.0644 -4.3775 0
M  V30 22 C -2.1550 -2.0288 -5.1025 0
M  V30 23 C -1.6414 -2.0727 -6.4980 0
M  V30 24 C -2.3378 -3.0990 -7.3522 0
M  V30 25 H 0.3880 2.1149 -3.4089 0
M  V30 26 H -0.7058 2.0611 -4.8757 0
M  V30 27 H -0.8523 0.4230 -2.3372 0
M  V30 28 H -3.1142 -0.2883 -3.3222 0
M  V30 29 H -2.5877 0.5676 -4.8640 0
M  V30 30 H -3.2120 -1.6777 -5.1551 0
M  V30 31 H -1.7127 -1.0963 -6.9953 0
M  V30 32 H -0.5517 -2.3477 -6.5531 0
M  V30 33 H -3.4362 -2.8862 -7.3219 0
M  V30 34 H -2.0470 -3.0397 -8.4131 0
M  V30 35 C 3.9939 3.2490 4.8401 0
M  V30 36 C 3.4758 3.6917 3.4870 0
M  V30 37 C 4.0091 2.7876 2.3789 0
M  V30 38 O 3.5822 1.5039 2.6414 0
M  V30 39 C 3.9971 0.5670 1.7067 0
M  V30 40 C 4.9149 -0.4141 2.3456 0
M  V30 41 C 5.4115 -1.4676 1.3909 0
M  V30 42 H 3.5168 3.9108 5.5918 0
M  V30 43 H 5.0950 3.3772 4.8333 0
M  V30 44 H 2.3595 3.6048 3.5628 0
M  V30 45 H 3.6941 3.2008 1.4070 0
M  V30 46 H 5.1282 2.8214 2.4962 0
M  V30 47 H 4.5959 1.1316 0.9544 0
M  V30 48 H 5.7817 0.0736 2.8110 0
M  V30 49 H 4.4252 -0.9915 3.1780 0
M  V30 50 H 5.8969 -0.9492 0.5258 0
M  V30 51 H 6.1884 -2.1118 1.8325 0
M  V30 52 C -3.1731 -4.6292 -4.1033 0
M  V30 53 C -4.2283 -4.8694 -3.0430 0
M  V30 54 C -3.5851 -5.0877 -1.6761 0
M  V30 55 O -2.8646 -3.9550 -1.3647 0
M  V30 56 C -2.2204 -4.0133 -0.1378 0
M  V30 57 C -0.7465 -3.9820 -0.3373 0
M  V30 58 C 0.0262 -4.0430 0.9539 0
M  V30 59 H -3.7171 -4.4196 -5.0470 0
M  V30 60 H -2.5672 -5.5538 -4.1857 0
M  V30 61 H -4.8521 -3.9366 -3.0401 0
M  V30 62 H -4.3744 -5.3583 -0.9562 0
M  V30 63 H -2.8630 -5.9370 -1.8323 0
M  V30 64 H -2.4703 -5.0120 0.2904 0
M  V30 65 H -0.4009 -4.7937 -0.9911 0
M  V30 66 H -0.3939 -3.0372 -0.8364 0
M  V30 67 H -0.2972 -4.9605 1.5073 0
M  V30 68 H 1.1113 -4.1507 0.7973 0
M  V30 69 C -0.3187 -1.3064 -2.2031 0
M  V30 70 C 0.8324 -0.3233 -2.1403 0
M  V30 71 C 0.6723 0.6255 -0.9555 0
M  V30 72 O 0.6497 -0.1359 0.1930 0
M  V30 73 C 0.5076 0.6020 1.3587 0
M  V30 74 C -0.7857 0.2697 2.0143 0
M  V30 75 C -1.0148 1.0343 3.2915 0
M  V30 76 H -0.0996 -1.9943 -3.0453 0
M  V30 77 H -1.2437 -0.7246 -2.3899 0
M  V30 78 H 1.7484 -0.9593 -2.0143 0
M  V30 79 H 1.4700 1.3844 -1.0036 0
M  V30 80 H -0.3441 1.0886 -1.0954 0
M  V30 81 H 0.4464 1.6684 1.0388 0
M  V30 82 H -1.6419 0.4371 1.3475 0
M  V30 83 H -0.8578 -0.8128 2.3131 0
M  V30 84 H -0.9370 2.1264 3.0593 0
M  V30 85 H -2.0251 0.8836 3.7038 0
M  V30 END ATOM
M  V30 BEGIN BOND
M  V30 1 1 1 2
M  V30 2 1 2 3
M  V30 3 1 3 4
M  V30 4 1 4 5
M  V30 5 1 5 6
M  V30 6 1 6 7
M  V30 7 1 1 8
M  V30 8 1 1 9
M  V30 9 1 2 10
M  V30 10 1 3 11
M  V30 11 1 3 12
M  V30 12 1 5 13
M  V30 13 1 6 14
M  V30 14 1 6 15
M  V30 15 1 7 16
M  V30 16 1 7 17
M  V30 17 1 18 19
M  V30 18 1 19 20
M  V30 19 1 20 21
M  V30 20 1 21 22
M  V30 21 1 22 23
M  V30 22 1 23 24
M  V30 23 1 18 25
M  V30 24 1 18 26
M  V30 25 1 19 27
M  V30 26 1 20 28
M  V30 27 1 20 29
M  V30 28 1 22 30
M  V30 29 1 23 31
M  V30 30 1 23 32
M  V30 31 1 24 33
M  V30 32 1 24 34
M  V30 33 1 35 36
M  V30 34 1 36 37
M  V30 35 1 37 38
M  V30 36 1 38 39
M  V30 37 1 39 40
M  V30 38 1 40 41
M  V30 39 1 35 42
M  V30 40 1 35 43
M  V30 41 1 36 44
M  V30 42 1 37 45
M  V30 43 1 37 46
M  V30 44 1 39 47
M  V30 45 1 40 48
M  V30 46 1 40 49
M  V30 47 1 41 50
M  V30 48 1 41 51
M  V30 49 1 52 53
M  V30 50 1 53 54
M  V30 51 1 54 55
M  V30 52 1 55 56
M  V30 53 1 56 57
M  V30 54 1 57 58
M  V30 55 1 52 59
M  V30 56 1 52 60
M  V30 57 1 53 61
M  V30 58 1 54 62
M  V30 59 1 54 63
M  V30 60 1 56 64
M  V30 61 1 57 65
M  V30 62 1 57 66
M  V30 63 1 58 67
M  V30 64 1 58 68
M  V30 65 1 69 70
M  V30 66 1 70 71
M  V30 67 1 71 72
M  V30 68 1 72 73
M  V30 69 1 73 74
M  V30 70 1 74 75
M  V30 71 1 69 76
M  V30 72 1 69 77
M  V30 73 1 70 78
M  V30 74 1 71 79
M  V30 75 1 71 80
M  V30 76 1 73 81
M  V30 77 1 74 82
M  V30 78 1 74 83
M  V30 79 1 75 84
M  V30 80 1 75 85
M  V30 81 1 1 35
M  V30 82 1 18 69
M  V30 83 1 19 52
M  V30 84 1 7 73
M  V30 85 1 22 53
M  V30 86 1 2 36
M  V30 87 1 58 75
M  V30 88 1 24 56
M  V30 89 1 41 70
M  V30 90 1 5 39
M  V30 END BOND
M  V30 END CTAB
M  END

$$$$
