
     RDKit          3D

  0  0  0  0  0  0  0  0  0  0999 V3000
M  V30 BEGIN CTAB
M  V30 COUNTS 18 20 0 0 0
M  V30 BEGIN ATOM
M  V30 1 Pd -2.1403 2.5899 2.7170 0
M  V30 2 Ba -1.2952 3.0645 2.9671 0
M  V30 3 Ba -1.5619 1.9063 2.2789 0
M  V30 4 Ba -2.9696 2.0964 2.4548 0
M  V30 5 Ba -2.6979 3.2895 3.1638 0
M  V30 6 Pd 2.1519 -0.2585 1.1418 0
M  V30 7 Ba 1.8889 -0.8405 0.3723 0
M  V30 8 Ba 3.0962 -0.5774 1.0602 0
M  V30 9 Ba 2.3892 0.3325 1.9140 0
M  V30 10 Ba 1.2181 0.0752 1.2442 0
M  V30 11 Ni 2.8334 -1.1586 0.2900 0
M  V30 12 Ni -3.5273 2.7968 2.9003 0
M  V30 13 Ag -0.6231 1.0323 1.7259 0
M  V30 14 Pb -0.3410 0.8243 1.6019 0
M  V30 15 Ag -0.0311 0.6436 1.5042 0
M  V30 16 Ga 2.0637 4.6647 3.7454 0
M  V30 17 Fe 2.5099 3.6311 4.2946 0
M  V30 18 Ga 2.9930 2.6339 4.8785 0
M  V30 END ATOM
M  V30 BEGIN BOND
M  V30 1 1 1 2
M  V30 2 1 1 3
M  V30 3 1 1 4
M  V30 4 1 1 5
M  V30 5 1 6 7
M  V30 6 1 6 8
M  V30 7 1 6 9
M  V30 8 1 6 10
M  V30 9 1 13 14
M  V30 10 1 14 15
M  V30 11 1 16 17
M  V30 12 1 17 18
M  V30 13 1 2 16
M  V30 14 1 3 13
M  V30 15 1 4 12
M  V30 16 1 5 12
M  V30 17 1 7 11
M  V30 18 1 8 11
M  V30 19 1 9 18
M  V30 20 1 10 15
M  V30 END BOND
M  V30 END CTAB
M  END

$$$$
