
     RDKit          3D

  0  0  0  0  0  0  0  0  0  0999 V3000
M  V30 BEGIN CTAB
M  V30 COUNTS 7 9 0 0 0
M  V30 BEGIN ATOM
M  V30 1 S 0.0000 1.2990 0.0000 0
M  V30 2 Fe 0.0000 0.0000 0.0000 0
M  V30 3 C -1.5000 -1.2990 0.0000 0
M  V30 4 Br -3.0000 -2.5981 0.0000 0
M  V30 5 P 1.5000 -1.2990 0.0000 0
M  V30 6 Br 3.0000 -2.5981 0.0000 0
M  V30 7 Br 0.0000 2.5981 0.0000 0
M  V30 END ATOM
M  V30 BEGIN BOND
M  V30 1 1 1 2
M  V30 2 1 2 3
M  V30 3 1 3 4
M  V30 4 1 3 5
M  V30 5 1 5 6
M  V30 6 1 1 7
M  V30 7 1 3 1
M  V30 8 1 5 1
M  V30 9 1 5 2
M  V30 END BOND
M  V30 END CTAB
M  END

$$$$
