
     RDKit          3D

  0  0  0  0  0  0  0  0  0  0999 V3000
M  V30 BEGIN CTAB
M  V30 COUNTS 34 36 0 0 0
M  V30 BEGIN ATOM
M  V30 1 Ag -2.2466 -1.9135 0.4275 0
M  V30 2 Pb -2.5063 -0.4485 0.2384 0
M  V30 3 Pb -2.3289 -2.4774 1.8150 0
M  V30 4 Pb -1.3548 -2.6109 -0.5563 0
M  V30 5 Ag 0.0455 0.4457 0.2851 0
M  V30 6 Pb 0.7123 0.8066 -1.0091 0
M  V30 7 Pb -1.4308 0.6570 0.4502 0
M  V30 8 Pb 0.8669 -0.0643 1.4325 0
M  V30 9 Ag 2.5894 3.1718 -1.8586 0
M  V30 10 Pb 2.5843 4.3454 -2.7601 0
M  V30 11 Pb 2.3023 4.6115 -1.6715 0
M  V30 12 Pb 1.4627 2.1828 -1.9089 0
M  V30 13 Ag 0.0753 -2.6413 1.4222 0
M  V30 14 Pb 1.0671 -1.5707 1.7677 0
M  V30 15 Pb -1.0818 -2.8664 2.3497 0
M  V30 16 Pb -0.1082 -3.0022 -0.0220 0
M  V30 17 Ba 2.4689 5.0981 -2.8220 0
M  V30 18 Fe 2.3593 5.2299 -2.4212 0
M  V30 19 Ba 2.2568 5.2983 -2.0031 0
M  V30 20 Ba -2.6321 0.2887 0.1451 0
M  V30 21 Fe -2.4003 0.5240 0.3388 0
M  V30 22 Ba -2.1729 0.7635 0.5327 0
M  V30 23 Ba -2.3529 -2.7633 2.5126 0
M  V30 24 Fe -2.0134 -2.8681 2.6579 0
M  V30 25 Ba -1.6744 -2.9732 2.8041 0
M  V30 26 Ba 1.0474 0.9878 -1.6595 0
M  V30 27 Fe 0.9726 1.3376 -1.7951 0
M  V30 28 Ba 0.8966 1.6858 -1.9341 0
M  V30 29 Ba -0.8941 -2.9633 -1.0386 0
M  V30 30 Fe -0.5554 -3.0697 -0.8927 0
M  V30 31 Ba -0.2163 -3.1765 -0.7479 0
M  V30 32 Ba 1.2804 -0.3205 2.0089 0
M  V30 33 Fe 1.4191 -0.6755 1.9723 0
M  V30 34 Ba 1.5623 -1.0292 1.9398 0
M  V30 END ATOM
M  V30 BEGIN BOND
M  V30 1 1 1 2
M  V30 2 1 1 3
M  V30 3 1 1 4
M  V30 4 1 5 6
M  V30 5 1 5 7
M  V30 6 1 5 8
M  V30 7 1 9 10
M  V30 8 1 9 11
M  V30 9 1 9 12
M  V30 10 1 13 14
M  V30 11 1 13 15
M  V30 12 1 13 16
M  V30 13 1 17 18
M  V30 14 1 18 19
M  V30 15 1 20 21
M  V30 16 1 21 22
M  V30 17 1 23 24
M  V30 18 1 24 25
M  V30 19 1 26 27
M  V30 20 1 27 28
M  V30 21 1 29 30
M  V30 22 1 30 31
M  V30 23 1 32 33
M  V30 24 1 33 34
M  V30 25 1 2 20
M  V30 26 1 3 23
M  V30 27 1 4 29
M  V30 28 1 6 26
M  V30 29 1 7 22
M  V30 30 1 8 32
M  V30 31 1 10 17
M  V30 32 1 11 19
M  V30 33 1 12 28
M  V30 34 1 14 34
M  V30 35 1 15 25
M  V30 36 1 16 31
M  V30 END BOND
M  V30 END CTAB
M  END

$$$$
