
     RDKit          3D

  0  0  0  0  0  0  0  0  0  0999 V3000
M  V30 BEGIN CTAB
M  V30 COUNTS 34 36 0 0 0
M  V30 BEGIN ATOM
M  V30 1 Ag -0.0055 -0.2310 2.0346 0
M  V30 2 Pb -1.0878 0.8072 2.0618 0
M  V30 3 Pb -0.3597 -1.6669 1.7848 0
M  V30 4 Pb 1.4322 0.1956 2.0013 0
M  V30 5 Ag -0.9747 1.7807 -0.4876 0
M  V30 6 Pb -1.8451 0.9503 -1.3836 0
M  V30 7 Pb 0.3538 2.2681 -0.9852 0
M  V30 8 Pb -1.3174 1.9134 0.9666 0
M  V30 9 Ag -0.9928 -1.6148 -0.8706 0
M  V30 10 Pb 0.2462 -1.8181 -1.6914 0
M  V30 11 Pb -2.0257 -0.6228 -1.3167 0
M  V30 12 Pb -1.0836 -2.2157 0.5008 0
M  V30 13 Ag 1.9686 0.0657 -0.6714 0
M  V30 14 Pb 1.6101 1.3666 -1.3266 0
M  V30 15 Pb 1.6809 -1.2266 -1.3766 0
M  V30 16 Pb 2.3945 0.0493 0.7668 0
M  V30 17 Ba -1.6318 1.3290 2.0746 0
M  V30 18 Fe -1.5586 1.6527 1.8842 0
M  V30 19 Ba -1.4891 1.9795 1.6977 0
M  V30 20 Ba 2.1547 0.4100 1.9836 0
M  V30 21 Fe 2.3789 0.2248 1.7349 0
M  V30 22 Ba 2.6079 0.0407 1.4898 0
M  V30 23 Ba 1.0218 2.5125 -1.2349 0
M  V30 24 Fe 1.2243 2.2640 -1.4439 0
M  V30 25 Ba 1.4293 2.0202 -1.6558 0
M  V30 26 Ba -0.5377 -2.3885 1.6586 0
M  V30 27 Fe -0.8329 -2.4501 1.4230 0
M  V30 28 Ba -1.1292 -2.5169 1.1904 0
M  V30 29 Ba 0.8691 -1.9195 -2.1037 0
M  V30 30 Fe 1.2012 -1.8959 -1.9152 0
M  V30 31 Ba 1.5358 -1.8762 -1.7305 0
M  V30 32 Ba -2.2821 0.5325 -1.8338 0
M  V30 33 Fe -2.4109 0.2041 -1.6854 0
M  V30 34 Ba -2.5446 -0.1238 -1.5404 0
M  V30 END ATOM
M  V30 BEGIN BOND
M  V30 1 1 1 2
M  V30 2 1 1 3
M  V30 3 1 1 4
M  V30 4 1 5 6
M  V30 5 1 5 7
M  V30 6 1 5 8
M  V30 7 1 9 10
M  V30 8 1 9 11
M  V30 9 1 9 12
M  V30 10 1 13 14
M  V30 11 1 13 15
M  V30 12 1 13 16
M  V30 13 1 17 18
M  V30 14 1 18 19
M  V30 15 1 20 21
M  V30 16 1 21 22
M  V30 17 1 23 24
M  V30 18 1 24 25
M  V30 19 1 26 27
M  V30 20 1 27 28
M  V30 21 1 29 30
M  V30 22 1 30 31
M  V30 23 1 32 33
M  V30 24 1 33 34
M  V30 25 1 2 17
M  V30 26 1 3 26
M  V30 27 1 4 20
M  V30 28 1 6 32
M  V30 29 1 7 23
M  V30 30 1 8 19
M  V30 31 1 10 29
M  V30 32 1 11 34
M  V30 33 1 12 28
M  V30 34 1 14 25
M  V30 35 1 15 31
M  V30 36 1 16 22
M  V30 END BOND
M  V30 END CTAB
M  END

$$$$
