
     RDKit          3D

  0  0  0  0  0  0  0  0  0  0999 V3000
M  V30 BEGIN CTAB
M  V30 COUNTS 34 36 0 0 0
M  V30 BEGIN ATOM
M  V30 1 Ag 0.0896 1.1679 -1.7278 0
M  V30 2 Pb -1.3930 1.3404 -1.5789 0
M  V30 3 Pb 0.6297 -0.0386 -2.4367 0
M  V30 4 Pb 1.0223 2.0610 -0.9645 0
M  V30 5 Ag -1.9330 0.0399 0.7845 0
M  V30 6 Pb -2.0279 -1.4200 0.4532 0
M  V30 7 Pb -1.3030 0.4692 2.0763 0
M  V30 8 Pb -2.2403 1.0628 -0.2687 0
M  V30 9 Ag 0.4894 -1.9290 -0.4718 0
M  V30 10 Pb 1.3195 -1.9343 0.7775 0
M  V30 11 Pb -0.9776 -2.2315 -0.3902 0
M  V30 12 Pb 1.0655 -1.3818 -1.7441 0
M  V30 13 Ag 1.3556 0.7199 1.4146 0
M  V30 14 Pb 0.1591 1.0540 2.2552 0
M  V30 15 Pb 1.9372 -0.6619 1.4650 0
M  V30 16 Pb 1.8116 1.6799 0.3561 0
M  V30 17 Ba -2.1381 1.4266 -1.5035 0
M  V30 18 Fe -2.2637 1.5002 -1.1497 0
M  V30 19 Ba -2.3940 1.5769 -0.7982 0
M  V30 20 Ba 1.4909 2.5094 -0.5803 0
M  V30 21 Fe 1.7638 2.3334 -0.3779 0
M  V30 22 Ba 2.0403 2.1621 -0.1763 0
M  V30 23 Ba -0.9857 0.6848 2.7253 0
M  V30 24 Fe -0.7134 0.9524 2.6985 0
M  V30 25 Ba -0.4426 1.2219 2.6772 0
M  V30 26 Ba 0.9008 -0.6455 -2.7924 0
M  V30 27 Fe 1.1264 -0.8749 -2.5852 0
M  V30 28 Ba 1.3549 -1.1060 -2.3832 0
M  V30 29 Ba 1.7366 -1.9363 1.4055 0
M  V30 30 Fe 1.9809 -1.6446 1.4459 0
M  V30 31 Ba 2.2290 -1.3565 1.4896 0
M  V30 32 Ba -2.0749 -2.1537 0.2865 0
M  V30 33 Fe -1.8929 -2.2659 -0.0309 0
M  V30 34 Ba -1.7149 -2.3827 -0.3489 0
M  V30 END ATOM
M  V30 BEGIN BOND
M  V30 1 1 1 2
M  V30 2 1 1 3
M  V30 3 1 1 4
M  V30 4 1 5 6
M  V30 5 1 5 7
M  V30 6 1 5 8
M  V30 7 1 9 10
M  V30 8 1 9 11
M  V30 9 1 9 12
M  V30 10 1 13 14
M  V30 11 1 13 15
M  V30 12 1 13 16
M  V30 13 1 17 18
M  V30 14 1 18 19
M  V30 15 1 20 21
M  V30 16 1 21 22
M  V30 17 1 23 24
M  V30 18 1 24 25
M  V30 19 1 26 27
M  V30 20 1 27 28
M  V30 21 1 29 30
M  V30 22 1 30 31
M  V30 23 1 32 33
M  V30 24 1 33 34
M  V30 25 1 2 17
M  V30 26 1 3 26
M  V30 27 1 4 20
M  V30 28 1 6 32
M  V30 29 1 7 23
M  V30 30 1 8 19
M  V30 31 1 10 29
M  V30 32 1 11 34
M  V30 33 1 12 28
M  V30 34 1 14 25
M  V30 35 1 15 31
M  V30 36 1 16 22
M  V30 END BOND
M  V30 END CTAB
M  END

$$$$
