
     RDKit          3D

  0  0  0  0  0  0  0  0  0  0999 V3000
M  V30 BEGIN CTAB
M  V30 COUNTS 34 36 0 0 0
M  V30 BEGIN ATOM
M  V30 1 Ag 1.1366 0.1449 -1.7472 0
M  V30 2 Pb 2.2803 0.5592 -0.8695 0
M  V30 3 Pb 0.8496 -1.3126 -1.9556 0
M  V30 4 Pb 0.1443 1.1710 -2.2083 0
M  V30 5 Ag 1.2291 0.3141 1.6584 0
M  V30 6 Pb 0.7281 -1.0019 2.1754 0
M  V30 7 Pb 0.4344 1.5616 1.9074 0
M  V30 8 Pb 2.3795 0.3453 0.6963 0
M  V30 9 Ag -0.8565 -1.9025 0.1177 0
M  V30 10 Pb -2.1772 -1.2075 0.2682 0
M  V30 11 Pb 0.0077 -2.1255 1.3233 0
M  V30 12 Pb -0.2977 -2.1477 -1.2526 0
M  V30 13 Ag -1.5117 1.4432 -0.0305 0
M  V30 14 Pb -0.9888 1.8981 1.2998 0
M  V30 15 Pb -2.4841 0.3030 -0.0962 0
M  V30 16 Pb -0.8812 1.9558 -1.2913 0
M  V30 17 Ba 2.8546 0.7674 -0.4279 0
M  V30 18 Fe 2.9029 0.5635 -0.1077 0
M  V30 19 Ba 2.9572 0.3608 0.2122 0
M  V30 20 Ba -0.3547 1.6865 -2.4394 0
M  V30 21 Fe -0.4588 1.9478 -2.1799 0
M  V30 22 Ba -0.5638 2.2130 -1.9249 0
M  V30 23 Ba 0.0346 2.1885 2.0320 0
M  V30 24 Fe -0.3451 2.1551 1.9981 0
M  V30 25 Ba -0.7255 2.1261 1.9684 0
M  V30 26 Ba 0.7051 -2.0451 -2.0597 0
M  V30 27 Fe 0.3439 -2.1555 -1.9985 0
M  V30 28 Ba -0.0167 -2.2702 -1.9413 0
M  V30 29 Ba -2.8406 -0.8576 0.3439 0
M  V30 30 Fe -2.9034 -0.5635 0.1072 0
M  V30 31 Ba -2.9721 -0.2706 -0.1292 0
M  V30 32 Ba 0.4759 -1.6633 2.4346 0
M  V30 33 Fe 0.4587 -1.9481 2.1796 0
M  V30 34 Ba 0.4423 -2.2369 1.9291 0
M  V30 END ATOM
M  V30 BEGIN BOND
M  V30 1 1 1 2
M  V30 2 1 1 3
M  V30 3 1 1 4
M  V30 4 1 5 6
M  V30 5 1 5 7
M  V30 6 1 5 8
M  V30 7 1 9 10
M  V30 8 1 9 11
M  V30 9 1 9 12
M  V30 10 1 13 14
M  V30 11 1 13 15
M  V30 12 1 13 16
M  V30 13 1 17 18
M  V30 14 1 18 19
M  V30 15 1 20 21
M  V30 16 1 21 22
M  V30 17 1 23 24
M  V30 18 1 24 25
M  V30 19 1 26 27
M  V30 20 1 27 28
M  V30 21 1 29 30
M  V30 22 1 30 31
M  V30 23 1 32 33
M  V30 24 1 33 34
M  V30 25 1 2 17
M  V30 26 1 3 26
M  V30 27 1 4 20
M  V30 28 1 6 32
M  V30 29 1 7 23
M  V30 30 1 8 19
M  V30 31 1 10 29
M  V30 32 1 11 34
M  V30 33 1 12 28
M  V30 34 1 14 25
M  V30 35 1 15 31
M  V30 36 1 16 22
M  V30 END BOND
M  V30 END CTAB
M  END

$$$$
