
     RDKit          3D

  0  0  0  0  0  0  0  0  0  0999 V3000
M  V30 BEGIN CTAB
M  V30 COUNTS 34 36 0 0 0
M  V30 BEGIN ATOM
M  V30 1 Ag -3.0874 2.2457 2.6511 0
M  V30 2 Pb -4.0519 1.8674 3.7078 0
M  V30 3 Pb -2.5080 1.1934 1.7528 0
M  V30 4 Pb -4.5550 2.3687 2.7962 0
M  V30 5 Ag 0.0191 -0.0980 0.0360 0
M  V30 6 Pb 1.3947 0.4679 0.2302 0
M  V30 7 Pb -1.0522 0.1731 1.0504 0
M  V30 8 Pb -0.2581 -1.0134 -1.1195 0
M  V30 9 Ag -0.9363 -4.0977 -1.7835 0
M  V30 10 Pb -0.1582 -5.3073 -2.1321 0
M  V30 11 Pb -0.8535 -4.9564 -2.9859 0
M  V30 12 Pb -0.2696 -2.7541 -1.7739 0
M  V30 13 Ag 3.4352 3.0546 0.0816 0
M  V30 14 Pb 4.9104 3.1424 0.0040 0
M  V30 15 Pb 2.7480 1.7437 -0.1617 0
M  V30 16 Pb 4.3824 3.5908 -0.9211 0
M  V30 17 Ba -0.3974 -1.4735 -1.7001 0
M  V30 18 Fe -0.1665 -1.7767 -1.7332 0
M  V30 19 Ba 0.0654 -2.0788 -1.7691 0
M  V30 20 Ba 2.0859 0.7522 0.3278 0
M  V30 21 Fe 2.2434 0.9195 0.0220 0
M  V30 22 Ba 2.4027 1.0849 -0.2840 0
M  V30 23 Ba 5.5122 3.3698 -0.4082 0
M  V30 24 Fe 5.3430 3.5460 -0.7692 0
M  V30 25 Ba 5.1150 3.7071 -1.1040 0
M  V30 26 Ba -4.7841 1.8592 3.9259 0
M  V30 27 Fe -5.0028 2.0446 3.5976 0
M  V30 28 Ba -5.1626 2.2362 3.2401 0
M  V30 29 Ba -2.2168 0.6646 1.3015 0
M  V30 30 Fe -1.9030 0.4879 1.4306 0
M  V30 31 Ba -1.5905 0.3092 1.5601 0
M  V30 32 Ba -0.0072 -5.8335 -2.6650 0
M  V30 33 Fe -0.2583 -5.7266 -3.0050 0
M  V30 34 Ba -0.5302 -5.5696 -3.3073 0
M  V30 END ATOM
M  V30 BEGIN BOND
M  V30 1 1 1 2
M  V30 2 1 1 3
M  V30 3 1 1 4
M  V30 4 1 5 6
M  V30 5 1 5 7
M  V30 6 1 5 8
M  V30 7 1 9 10
M  V30 8 1 9 11
M  V30 9 1 9 12
M  V30 10 1 13 14
M  V30 11 1 13 15
M  V30 12 1 13 16
M  V30 13 1 17 18
M  V30 14 1 18 19
M  V30 15 1 20 21
M  V30 16 1 21 22
M  V30 17 1 23 24
M  V30 18 1 24 25
M  V30 19 1 26 27
M  V30 20 1 27 28
M  V30 21 1 29 30
M  V30 22 1 30 31
M  V30 23 1 32 33
M  V30 24 1 33 34
M  V30 25 1 2 26
M  V30 26 1 3 29
M  V30 27 1 4 28
M  V30 28 1 6 20
M  V30 29 1 7 31
M  V30 30 1 8 17
M  V30 31 1 10 32
M  V30 32 1 11 34
M  V30 33 1 12 19
M  V30 34 1 14 23
M  V30 35 1 15 22
M  V30 36 1 16 25
M  V30 END BOND
M  V30 END CTAB
M  END

$$$$
