
     RDKit          3D

  0  0  0  0  0  0  0  0  0  0999 V3000
M  V30 BEGIN CTAB
M  V30 COUNTS 34 36 0 0 0
M  V30 BEGIN ATOM
M  V30 1 Ag -0.0536 -0.0310 2.1610 0
M  V30 2 Fe -1.1703 -0.6757 2.9274 0
M  V30 3 Fe 1.0474 -0.6757 2.9497 0
M  V30 4 Fe -0.0615 1.2449 2.9497 0
M  V30 5 Ag -1.7027 -0.9831 -0.5993 0
M  V30 6 Fe -2.7197 -1.5702 0.3339 0
M  V30 7 Fe -2.7016 -0.2793 -1.4693 0
M  V30 8 Fe -1.5927 -2.2000 -1.4693 0
M  V30 9 Ag 1.6505 -0.9832 -0.5656 0
M  V30 10 Fe 2.6485 -1.5704 0.3878 0
M  V30 11 Fe 1.5579 -2.2001 -1.4377 0
M  V30 12 Fe 2.6667 -0.2795 -1.4155 0
M  V30 13 Ag -0.0262 1.9209 -0.5656 0
M  V30 14 Fe -0.0357 3.0789 0.3878 0
M  V30 15 Fe 1.0913 2.4491 -1.4155 0
M  V30 16 Fe -1.1264 2.4492 -1.4377 0
M  V30 17 Pb -1.9182 -1.1074 3.4316 0
M  V30 18 Ba -2.6600 -1.5358 2.2003 0
M  V30 19 Pb -3.3935 -1.9592 0.9622 0
M  V30 20 Pb 1.7850 -1.1076 3.4688 0
M  V30 21 Ba 2.5514 -1.5359 2.2526 0
M  V30 22 Pb 3.3095 -1.9594 1.0295 0
M  V30 23 Pb -0.0667 2.0996 3.4688 0
M  V30 24 Ba -0.0544 2.9775 2.2526 0
M  V30 25 Pb -0.0421 3.8458 1.0295 0
M  V30 26 Pb -1.5115 -3.0108 -2.0490 0
M  V30 27 Ba -0.0116 -3.0157 -2.0373 0
M  V30 28 Pb 1.4883 -3.0109 -2.0189 0
M  V30 29 Pb -3.3632 0.1964 -2.0490 0
M  V30 30 Ba -2.6174 1.4978 -2.0373 0
M  V30 31 Pb -1.8634 2.7944 -2.0189 0
M  V30 32 Pb 3.3398 0.1962 -1.9817 0
M  V30 33 Ba 2.5940 1.4976 -1.9851 0
M  V30 34 Pb 1.8398 2.7942 -1.9817 0
M  V30 END ATOM
M  V30 BEGIN BOND
M  V30 1 1 1 2
M  V30 2 1 1 3
M  V30 3 1 1 4
M  V30 4 1 5 6
M  V30 5 1 5 7
M  V30 6 1 5 8
M  V30 7 1 9 10
M  V30 8 1 9 11
M  V30 9 1 9 12
M  V30 10 1 13 14
M  V30 11 1 13 15
M  V30 12 1 13 16
M  V30 13 1 17 18
M  V30 14 1 18 19
M  V30 15 1 20 21
M  V30 16 1 21 22
M  V30 17 1 23 24
M  V30 18 1 24 25
M  V30 19 1 26 27
M  V30 20 1 27 28
M  V30 21 1 29 30
M  V30 22 1 30 31
M  V30 23 1 32 33
M  V30 24 1 33 34
M  V30 25 1 2 17
M  V30 26 1 6 19
M  V30 27 1 3 20
M  V30 28 1 10 22
M  V30 29 1 4 23
M  V30 30 1 14 25
M  V30 31 1 8 26
M  V30 32 1 11 28
M  V30 33 1 7 29
M  V30 34 1 16 31
M  V30 35 1 12 32
M  V30 36 1 15 34
M  V30 END BOND
M  V30 END CTAB
M  END

$$$$
