
     RDKit          3D

  0  0  0  0  0  0  0  0  0  0999 V3000
M  V30 BEGIN CTAB
M  V30 COUNTS 34 36 0 0 0
M  V30 BEGIN ATOM
M  V30 1 Ag 1.0040 -1.2162 2.8002 0
M  V30 2 Fe -0.4568 -0.8851 2.6875 0
M  V30 3 Fe 0.5631 -0.2202 1.7696 0
M  V30 4 Fe 0.3620 0.1186 3.0271 0
M  V30 5 Ag -1.7339 -1.8449 -1.8108 0
M  V30 6 Fe -2.5318 -1.4500 -0.6054 0
M  V30 7 Fe -2.2648 -0.4776 -1.4865 0
M  V30 8 Fe -1.2482 -1.1528 -0.5724 0
M  V30 9 Ag 3.1015 -2.1624 -1.4773 0
M  V30 10 Fe 2.2835 -0.9047 -1.5104 0
M  V30 11 Fe 2.4901 -1.5041 -0.2752 0
M  V30 12 Fe 1.6294 -2.0881 -1.1949 0
M  V30 13 Ag 1.5170 2.4173 -1.1607 0
M  V30 14 Fe 0.6652 2.6710 0.0503 0
M  V30 15 Fe 0.4109 1.4577 -0.8378 0
M  V30 16 Fe 0.0433 2.6876 -1.1356 0
M  V30 17 Pb -1.4389 -0.6851 2.6886 0
M  V30 18 Ba -2.2226 -0.9240 1.4311 0
M  V30 19 Pb -3.0452 -1.1476 0.1958 0
M  V30 20 Pb 0.3276 0.4567 1.0724 0
M  V30 21 Ba 1.0302 0.2202 -0.2318 0
M  V30 22 Pb 1.7247 -0.0747 -1.5277 0
M  V30 23 Pb -0.0957 0.9978 3.1485 0
M  V30 24 Ba 0.0238 1.9424 1.9883 0
M  V30 25 Pb 0.1149 2.9173 0.8509 0
M  V30 26 Pb -0.8972 -0.7432 0.2694 0
M  V30 27 Ba 0.5866 -0.9032 0.4221 0
M  V30 28 Pb 2.0756 -1.0536 0.5164 0
M  V30 29 Pb -2.6840 0.4159 -1.3120 0
M  V30 30 Ba -1.7932 1.6186 -1.2000 0
M  V30 31 Pb -0.9407 2.8480 -1.0802 0
M  V30 32 Pb 0.6511 -2.0296 -0.9930 0
M  V30 33 Ba 0.1414 -0.6268 -0.8475 0
M  V30 34 Pb -0.3168 0.7913 -0.6762 0
M  V30 END ATOM
M  V30 BEGIN BOND
M  V30 1 1 1 2
M  V30 2 1 1 3
M  V30 3 1 1 4
M  V30 4 1 5 6
M  V30 5 1 5 7
M  V30 6 1 5 8
M  V30 7 1 9 10
M  V30 8 1 9 11
M  V30 9 1 9 12
M  V30 10 1 13 14
M  V30 11 1 13 15
M  V30 12 1 13 16
M  V30 13 1 17 18
M  V30 14 1 18 19
M  V30 15 1 20 21
M  V30 16 1 21 22
M  V30 17 1 23 24
M  V30 18 1 24 25
M  V30 19 1 26 27
M  V30 20 1 27 28
M  V30 21 1 29 30
M  V30 22 1 30 31
M  V30 23 1 32 33
M  V30 24 1 33 34
M  V30 25 1 2 17
M  V30 26 1 6 19
M  V30 27 1 3 20
M  V30 28 1 10 22
M  V30 29 1 4 23
M  V30 30 1 14 25
M  V30 31 1 8 26
M  V30 32 1 11 28
M  V30 33 1 7 29
M  V30 34 1 16 31
M  V30 35 1 12 32
M  V30 36 1 15 34
M  V30 END BOND
M  V30 END CTAB
M  END

$$$$
