
     RDKit          3D

  0  0  0  0  0  0  0  0  0  0999 V3000
M  V30 BEGIN CTAB
M  V30 COUNTS 34 36 0 0 0
M  V30 BEGIN ATOM
M  V30 1 Ag 3.2669 -0.1017 3.8315 0
M  V30 2 Fe 2.3233 -1.2435 4.0674 0
M  V30 3 Fe 3.8679 -0.1016 2.4571 0
M  V30 4 Fe 2.3231 1.0401 4.0675 0
M  V30 5 Ag -3.2667 -0.1022 3.8317 0
M  V30 6 Fe -2.3229 -1.2439 4.0675 0
M  V30 7 Fe -2.3231 1.0397 4.0676 0
M  V30 8 Fe -3.8678 -0.1022 2.4574 0
M  V30 9 Ag 3.2667 -0.1014 -3.8317 0
M  V30 10 Fe 2.3231 -1.2433 -4.0676 0
M  V30 11 Fe 2.3229 1.0403 -4.0675 0
M  V30 12 Fe 3.8678 -0.1014 -2.4574 0
M  V30 13 Ag -3.2669 -0.1020 -3.8315 0
M  V30 14 Fe -2.3231 -1.2437 -4.0675 0
M  V30 15 Fe -3.8679 -0.1021 -2.4571 0
M  V30 16 Fe -2.3233 1.0399 -4.0674 0
M  V30 17 Pb 1.4810 -1.7713 4.1765 0
M  V30 18 Ba 0.0003 -2.0064 4.2250 0
M  V30 19 Pb -1.4804 -1.7716 4.1765 0
M  V30 20 Pb 1.4807 1.5677 4.1765 0
M  V30 21 Ba -0.0000 1.8025 4.2251 0
M  V30 22 Pb -1.4807 1.5675 4.1766 0
M  V30 23 Pb 1.4807 -1.7711 -4.1766 0
M  V30 24 Ba 0.0000 -2.0062 -4.2251 0
M  V30 25 Pb -1.4807 -1.7714 -4.1765 0
M  V30 26 Pb 1.4804 1.5680 -4.1765 0
M  V30 27 Ba -0.0003 1.8028 -4.2250 0
M  V30 28 Pb -1.4810 1.5677 -4.1765 0
M  V30 29 Pb 4.1464 -0.1015 1.4967 0
M  V30 30 Ba 4.2438 -0.1015 -0.0001 0
M  V30 31 Pb 4.1463 -0.1014 -1.4970 0
M  V30 32 Pb -4.1463 -0.1022 1.4970 0
M  V30 33 Ba -4.2438 -0.1022 0.0001 0
M  V30 34 Pb -4.1464 -0.1021 -1.4967 0
M  V30 END ATOM
M  V30 BEGIN BOND
M  V30 1 1 1 2
M  V30 2 1 1 3
M  V30 3 1 1 4
M  V30 4 1 5 6
M  V30 5 1 5 7
M  V30 6 1 5 8
M  V30 7 1 9 10
M  V30 8 1 9 11
M  V30 9 1 9 12
M  V30 10 1 13 14
M  V30 11 1 13 15
M  V30 12 1 13 16
M  V30 13 1 17 18
M  V30 14 1 18 19
M  V30 15 1 20 21
M  V30 16 1 21 22
M  V30 17 1 23 24
M  V30 18 1 24 25
M  V30 19 1 26 27
M  V30 20 1 27 28
M  V30 21 1 29 30
M  V30 22 1 30 31
M  V30 23 1 32 33
M  V30 24 1 33 34
M  V30 25 1 2 17
M  V30 26 1 6 19
M  V30 27 1 4 20
M  V30 28 1 7 22
M  V30 29 1 10 23
M  V30 30 1 14 25
M  V30 31 1 11 26
M  V30 32 1 16 28
M  V30 33 1 3 29
M  V30 34 1 12 31
M  V30 35 1 8 32
M  V30 36 1 15 34
M  V30 END BOND
M  V30 END CTAB
M  END

$$$$
