
     RDKit          3D

  0  0  0  0  0  0  0  0  0  0999 V3000
M  V30 BEGIN CTAB
M  V30 COUNTS 51 54 0 0 0
M  V30 BEGIN ATOM
M  V30 1 Ag -4.0252 -2.3779 -4.0474 0
M  V30 2 Fe -4.0155 -2.3726 -2.5457 0
M  V30 3 Fe -3.5889 -0.9435 -4.0616 0
M  V30 4 Fe -2.5570 -2.6867 -4.0564 0
M  V30 5 Ag -4.0003 -2.3802 3.9573 0
M  V30 6 Fe -3.9968 -2.3728 2.4562 0
M  V30 7 Fe -2.5351 -2.6945 3.9617 0
M  V30 8 Fe -3.5522 -0.9469 3.9780 0
M  V30 9 Ag 3.8759 -2.2961 -4.0506 0
M  V30 10 Fe 2.4198 -2.6494 -4.0621 0
M  V30 11 Fe 3.4029 -0.8719 -4.0631 0
M  V30 12 Fe 3.8503 -2.2789 -2.5506 0
M  V30 13 Ag 3.8983 -2.3407 3.9464 0
M  V30 14 Fe 3.8613 -2.3095 2.4471 0
M  V30 15 Fe 3.4386 -0.9120 3.9751 0
M  V30 16 Fe 2.4392 -2.6791 3.9615 0
M  V30 17 Ag -0.1563 4.5097 -4.0140 0
M  V30 18 Fe -1.1680 3.4045 -4.0439 0
M  V30 19 Fe -0.1514 4.4523 -2.5154 0
M  V30 20 Fe 0.8684 3.4141 -4.0368 0
M  V30 21 Ag -0.0841 4.4886 3.9797 0
M  V30 22 Fe -1.1022 3.3868 3.9984 0
M  V30 23 Fe 0.9401 3.3933 3.9961 0
M  V30 24 Fe -0.0942 4.4413 2.4810 0
M  V30 25 Pb -4.0117 -2.3726 -1.5450 0
M  V30 26 Ba -4.0068 -2.3741 -0.0447 0
M  V30 27 Pb -4.0001 -2.3729 1.4548 0
M  V30 28 Pb -1.5651 -2.8103 -4.0624 0
M  V30 29 Ba -0.0660 -2.8672 -4.0671 0
M  V30 30 Pb 1.4308 -2.7927 -4.0659 0
M  V30 31 Pb 3.8382 -2.2741 -1.5510 0
M  V30 32 Ba 3.8353 -2.2765 -0.0512 0
M  V30 33 Pb 3.8447 -2.2924 1.4475 0
M  V30 34 Pb -1.5443 -2.8216 3.9672 0
M  V30 35 Ba -0.0463 -2.8847 3.9706 0
M  V30 36 Pb 1.4505 -2.8165 3.9673 0
M  V30 37 Pb -3.2206 -0.0151 -4.0678 0
M  V30 38 Ba -2.5552 1.3293 -4.0678 0
M  V30 39 Pb -1.7714 2.6076 -4.0580 0
M  V30 40 Pb 3.0102 0.0480 -4.0637 0
M  V30 41 Ba 2.3060 1.3722 -4.0578 0
M  V30 42 Pb 1.4862 2.6276 -4.0480 0
M  V30 43 Pb -3.1759 -0.0204 3.9898 0
M  V30 44 Ba -2.5016 1.3182 3.9997 0
M  V30 45 Pb -1.7101 2.5916 4.0026 0
M  V30 46 Pb 3.0548 0.0111 3.9881 0
M  V30 47 Ba 2.3640 1.3415 3.9989 0
M  V30 48 Pb 1.5558 2.6050 4.0011 0
M  V30 49 Pb -0.1409 4.4205 -1.5168 0
M  V30 50 Ba -0.1233 4.4002 -0.0175 0
M  V30 51 Pb -0.1065 4.4150 1.4819 0
M  V30 END ATOM
M  V30 BEGIN BOND
M  V30 1 1 1 2
M  V30 2 1 1 3
M  V30 3 1 1 4
M  V30 4 1 5 6
M  V30 5 1 5 7
M  V30 6 1 5 8
M  V30 7 1 9 10
M  V30 8 1 9 11
M  V30 9 1 9 12
M  V30 10 1 13 14
M  V30 11 1 13 15
M  V30 12 1 13 16
M  V30 13 1 17 18
M  V30 14 1 17 19
M  V30 15 1 17 20
M  V30 16 1 21 22
M  V30 17 1 21 23
M  V30 18 1 21 24
M  V30 19 1 25 26
M  V30 20 1 26 27
M  V30 21 1 28 29
M  V30 22 1 29 30
M  V30 23 1 31 32
M  V30 24 1 32 33
M  V30 25 1 34 35
M  V30 26 1 35 36
M  V30 27 1 37 38
M  V30 28 1 38 39
M  V30 29 1 40 41
M  V30 30 1 41 42
M  V30 31 1 43 44
M  V30 32 1 44 45
M  V30 33 1 46 47
M  V30 34 1 47 48
M  V30 35 1 49 50
M  V30 36 1 50 51
M  V30 37 1 2 25
M  V30 38 1 6 27
M  V30 39 1 4 28
M  V30 40 1 10 30
M  V30 41 1 12 31
M  V30 42 1 14 33
M  V30 43 1 7 34
M  V30 44 1 16 36
M  V30 45 1 3 37
M  V30 46 1 18 39
M  V30 47 1 11 40
M  V30 48 1 20 42
M  V30 49 1 8 43
M  V30 50 1 22 45
M  V30 51 1 15 46
M  V30 52 1 23 48
M  V30 53 1 19 49
M  V30 54 1 24 51
M  V30 END BOND
M  V30 END CTAB
M  END

$$$$
