
     RDKit          3D

  0  0  0  0  0  0  0  0  0  0999 V3000
M  V30 BEGIN CTAB
M  V30 COUNTS 34 36 0 0 0
M  V30 BEGIN ATOM
M  V30 1 Ag 3.1454 -0.4292 3.4161 0
M  V30 2 Fe 2.1904 -1.3988 2.7853 0
M  V30 3 Fe 3.7546 0.3187 2.2674 0
M  V30 4 Fe 2.1888 0.5392 4.0462 0
M  V30 5 Ag -3.1473 -0.4332 3.4140 0
M  V30 6 Fe -2.1906 -1.4016 2.7839 0
M  V30 7 Fe -2.1923 0.5364 4.0448 0
M  V30 8 Fe -3.7566 0.3139 2.2649 0
M  V30 9 Ag 3.1477 -0.4278 -3.4141 0
M  V30 10 Fe 2.1923 -1.3977 -2.7844 0
M  V30 11 Fe 2.1914 0.5408 -4.0445 0
M  V30 12 Fe 3.7561 0.3196 -2.2647 0
M  V30 13 Ag -3.1450 -0.4318 -3.4162 0
M  V30 14 Fe -2.1888 -1.4005 -2.7858 0
M  V30 15 Fe -3.7551 0.3148 -2.2672 0
M  V30 16 Fe -2.1896 0.5380 -4.0460 0
M  V30 17 Pb 1.4994 -2.0048 2.3912 0
M  V30 18 Ba 0.0004 -2.0514 2.3609 0
M  V30 19 Pb -1.4986 -2.0067 2.3902 0
M  V30 20 Pb 1.4967 1.1442 4.4400 0
M  V30 21 Ba -0.0023 1.1890 4.4692 0
M  V30 22 Pb -1.5013 1.1423 4.4390 0
M  V30 23 Pb 1.5010 -2.0038 -2.3909 0
M  V30 24 Ba 0.0020 -2.0505 -2.3617 0
M  V30 25 Pb -1.4970 -2.0057 -2.3919 0
M  V30 26 Pb 1.4997 1.1460 -4.4385 0
M  V30 27 Ba 0.0007 1.1908 -4.4687 0
M  V30 28 Pb -1.4983 1.1441 -4.4395 0
M  V30 29 Pb 4.1607 0.8173 1.5016 0
M  V30 30 Ba 4.1612 0.8176 0.0016 0
M  V30 31 Pb 4.1617 0.8179 -1.4984 0
M  V30 32 Pb -4.1629 0.8120 1.4988 0
M  V30 33 Ba -4.1624 0.8123 -0.0012 0
M  V30 34 Pb -4.1619 0.8126 -1.5012 0
M  V30 END ATOM
M  V30 BEGIN BOND
M  V30 1 1 1 2
M  V30 2 1 1 3
M  V30 3 1 1 4
M  V30 4 1 5 6
M  V30 5 1 5 7
M  V30 6 1 5 8
M  V30 7 1 9 10
M  V30 8 1 9 11
M  V30 9 1 9 12
M  V30 10 1 13 14
M  V30 11 1 13 15
M  V30 12 1 13 16
M  V30 13 1 17 18
M  V30 14 1 18 19
M  V30 15 1 20 21
M  V30 16 1 21 22
M  V30 17 1 23 24
M  V30 18 1 24 25
M  V30 19 1 26 27
M  V30 20 1 27 28
M  V30 21 1 29 30
M  V30 22 1 30 31
M  V30 23 1 32 33
M  V30 24 1 33 34
M  V30 25 1 2 17
M  V30 26 1 6 19
M  V30 27 1 4 20
M  V30 28 1 7 22
M  V30 29 1 10 23
M  V30 30 1 14 25
M  V30 31 1 11 26
M  V30 32 1 16 28
M  V30 33 1 3 29
M  V30 34 1 12 31
M  V30 35 1 8 32
M  V30 36 1 15 34
M  V30 END BOND
M  V30 END CTAB
M  END

$$$$
