
     RDKit          3D

  0  0  0  0  0  0  0  0  0  0999 V3000
M  V30 BEGIN CTAB
M  V30 COUNTS 34 36 0 0 0
M  V30 BEGIN ATOM
M  V30 1 Ag 3.2069 -0.5040 3.2735 0
M  V30 2 Fe 2.1842 0.2793 4.0420 0
M  V30 3 Fe 3.4010 0.5393 2.2133 0
M  V30 4 Fe 2.1867 -1.2869 2.5013 0
M  V30 5 Ag -3.2189 -0.5029 3.2619 0
M  V30 6 Fe -2.1987 0.2800 4.0341 0
M  V30 7 Fe -2.1962 -1.2862 2.4934 0
M  V30 8 Fe -3.4088 0.5404 2.2010 0
M  V30 9 Ag 3.2187 -0.5031 -3.2620 0
M  V30 10 Fe 2.1989 0.2804 -4.0340 0
M  V30 11 Fe 2.1958 -1.2862 -2.4937 0
M  V30 12 Fe 3.4090 0.5399 -2.2009 0
M  V30 13 Ag -3.2070 -0.5020 -3.2736 0
M  V30 14 Fe -2.1841 0.2811 -4.0419 0
M  V30 15 Fe -3.4008 0.5410 -2.2132 0
M  V30 16 Fe -2.1871 -1.2855 -2.5016 0
M  V30 17 Pb 1.4919 0.7944 4.5474 0
M  V30 18 Ba -0.0081 0.8024 4.5523 0
M  V30 19 Pb -1.5081 0.7949 4.5419 0
M  V30 20 Pb 1.4961 -1.8017 1.9934 0
M  V30 21 Ba -0.0039 -1.8093 1.9831 0
M  V30 22 Pb -1.5039 -1.8012 1.9880 0
M  V30 23 Pb 1.5083 0.7956 -4.5417 0
M  V30 24 Ba 0.0084 0.8036 -4.5521 0
M  V30 25 Pb -1.4916 0.7961 -4.5471 0
M  V30 26 Pb 1.5033 -1.8012 -1.9885 0
M  V30 27 Ba 0.0033 -1.8087 -1.9835 0
M  V30 28 Pb -1.4966 -1.8007 -1.9939 0
M  V30 29 Pb 3.5304 1.2348 1.5066 0
M  V30 30 Ba 3.5331 1.2350 0.0066 0
M  V30 31 Pb 3.5358 1.2352 -1.4934 0
M  V30 32 Pb -3.5354 1.2359 1.4938 0
M  V30 33 Ba -3.5327 1.2361 -0.0062 0
M  V30 34 Pb -3.5300 1.2363 -1.5062 0
M  V30 END ATOM
M  V30 BEGIN BOND
M  V30 1 1 1 2
M  V30 2 1 1 3
M  V30 3 1 1 4
M  V30 4 1 5 6
M  V30 5 1 5 7
M  V30 6 1 5 8
M  V30 7 1 9 10
M  V30 8 1 9 11
M  V30 9 1 9 12
M  V30 10 1 13 14
M  V30 11 1 13 15
M  V30 12 1 13 16
M  V30 13 1 17 18
M  V30 14 1 18 19
M  V30 15 1 20 21
M  V30 16 1 21 22
M  V30 17 1 23 24
M  V30 18 1 24 25
M  V30 19 1 26 27
M  V30 20 1 27 28
M  V30 21 1 29 30
M  V30 22 1 30 31
M  V30 23 1 32 33
M  V30 24 1 33 34
M  V30 25 1 2 17
M  V30 26 1 6 19
M  V30 27 1 4 20
M  V30 28 1 7 22
M  V30 29 1 10 23
M  V30 30 1 14 25
M  V30 31 1 11 26
M  V30 32 1 16 28
M  V30 33 1 3 29
M  V30 34 1 12 31
M  V30 35 1 8 32
M  V30 36 1 15 34
M  V30 END BOND
M  V30 END CTAB
M  END

$$$$
