
     RDKit          3D

  0  0  0  0  0  0  0  0  0  0999 V3000
M  V30 BEGIN CTAB
M  V30 COUNTS 51 54 0 0 0
M  V30 BEGIN ATOM
M  V30 1 Ag -3.7533 -2.1830 -3.5980 0
M  V30 2 Fe -4.4948 -2.6203 -2.3700 0
M  V30 3 Fe -3.5674 -0.7364 -3.2462 0
M  V30 4 Fe -2.4022 -2.7381 -3.2554 0
M  V30 5 Ag -3.7462 -2.2117 3.5343 0
M  V30 6 Fe -4.4901 -2.6391 2.3043 0
M  V30 7 Fe -2.3957 -2.7640 3.1845 0
M  V30 8 Fe -3.5609 -0.7623 3.1937 0
M  V30 9 Ag 3.6696 -2.0879 -3.7087 0
M  V30 10 Fe 2.3574 -2.6981 -3.3141 0
M  V30 11 Fe 3.1827 -0.8741 -4.4425 0
M  V30 12 Fe 4.0678 -1.4625 -2.4046 0
M  V30 13 Ag 3.6770 -2.1175 3.6309 0
M  V30 14 Fe 4.0726 -1.4816 2.3310 0
M  V30 15 Fe 3.1916 -0.9096 4.3754 0
M  V30 16 Fe 2.3639 -2.7244 3.2339 0
M  V30 17 Ag -0.0055 4.2255 -3.6796 0
M  V30 18 Fe -1.1825 3.3830 -3.2860 0
M  V30 19 Fe 0.7403 4.2539 -2.3782 0
M  V30 20 Fe 0.8066 3.2078 -4.4237 0
M  V30 21 Ag 0.0018 4.1959 3.6600 0
M  V30 22 Fe -1.1759 3.3566 3.2620 0
M  V30 23 Fe 0.8155 3.1723 4.3942 0
M  V30 24 Fe 0.7450 4.2349 2.3574 0
M  V30 25 Pb -4.9652 -2.8980 -1.5328 0
M  V30 26 Ba -4.9868 -2.9175 -0.0335 0
M  V30 27 Pb -4.9622 -2.9101 1.4658 0
M  V30 28 Pb -1.5138 -3.1295 -3.0139 0
M  V30 29 Ba -0.0139 -3.1080 -3.0380 0
M  V30 30 Pb 1.4863 -3.1102 -3.0471 0
M  V30 31 Pb 4.3338 -1.0448 -1.5355 0
M  V30 32 Ba 4.3345 -1.0521 -0.0353 0
M  V30 33 Pb 4.3368 -1.0569 1.4649 0
M  V30 34 Pb -1.5078 -3.1535 2.9380 0
M  V30 35 Ba -0.0079 -3.1321 2.9593 0
M  V30 36 Pb 1.4923 -3.1344 2.9654 0
M  V30 37 Pb -3.4681 0.2277 -2.9983 0
M  V30 38 Ba -2.7088 1.5215 -3.0166 0
M  V30 39 Pb -1.9699 2.8271 -3.0197 0
M  V30 40 Pb 2.8570 -0.0641 -4.9293 0
M  V30 41 Ba 2.1034 1.2324 -4.9269 0
M  V30 42 Pb 1.3482 2.5279 -4.9174 0
M  V30 43 Pb -3.4621 0.2038 2.9535 0
M  V30 44 Ba -2.7028 1.4973 2.9807 0
M  V30 45 Pb -1.9639 2.8029 2.9928 0
M  V30 46 Pb 2.8668 -0.1035 4.8694 0
M  V30 47 Ba 2.1132 1.1929 4.8789 0
M  V30 48 Pb 1.3580 2.4884 4.8813 0
M  V30 49 Pb 1.2382 4.2730 -1.5110 0
M  V30 50 Ba 1.2383 4.2668 -0.0108 0
M  V30 51 Pb 1.2412 4.2609 1.4894 0
M  V30 END ATOM
M  V30 BEGIN BOND
M  V30 1 1 1 2
M  V30 2 1 1 3
M  V30 3 1 1 4
M  V30 4 1 5 6
M  V30 5 1 5 7
M  V30 6 1 5 8
M  V30 7 1 9 10
M  V30 8 1 9 11
M  V30 9 1 9 12
M  V30 10 1 13 14
M  V30 11 1 13 15
M  V30 12 1 13 16
M  V30 13 1 17 18
M  V30 14 1 17 19
M  V30 15 1 17 20
M  V30 16 1 21 22
M  V30 17 1 21 23
M  V30 18 1 21 24
M  V30 19 1 25 26
M  V30 20 1 26 27
M  V30 21 1 28 29
M  V30 22 1 29 30
M  V30 23 1 31 32
M  V30 24 1 32 33
M  V30 25 1 34 35
M  V30 26 1 35 36
M  V30 27 1 37 38
M  V30 28 1 38 39
M  V30 29 1 40 41
M  V30 30 1 41 42
M  V30 31 1 43 44
M  V30 32 1 44 45
M  V30 33 1 46 47
M  V30 34 1 47 48
M  V30 35 1 49 50
M  V30 36 1 50 51
M  V30 37 1 2 25
M  V30 38 1 6 27
M  V30 39 1 4 28
M  V30 40 1 10 30
M  V30 41 1 12 31
M  V30 42 1 14 33
M  V30 43 1 7 34
M  V30 44 1 16 36
M  V30 45 1 3 37
M  V30 46 1 18 39
M  V30 47 1 11 40
M  V30 48 1 20 42
M  V30 49 1 8 43
M  V30 50 1 22 45
M  V30 51 1 15 46
M  V30 52 1 23 48
M  V30 53 1 19 49
M  V30 54 1 24 51
M  V30 END BOND
M  V30 END CTAB
M  END

$$$$
