
     RDKit          3D

  0  0  0  0  0  0  0  0  0  0999 V3000
M  V30 BEGIN CTAB
M  V30 COUNTS 17 18 0 0 0
M  V30 BEGIN ATOM
M  V30 1 Ag -0.1206 -1.1319 3.1087 0
M  V30 2 Fe -1.1856 -1.7396 2.2448 0
M  V30 3 Fe 0.9382 -1.7504 2.2448 0
M  V30 4 Fe -0.1144 0.0943 2.2448 0
M  V30 5 Ag -0.1206 -1.1319 -3.1087 0
M  V30 6 Fe -1.1856 -1.7396 -2.2448 0
M  V30 7 Fe -0.1144 0.0943 -2.2448 0
M  V30 8 Fe 0.9382 -1.7504 -2.2448 0
M  V30 9 Pb -1.7543 -2.0641 1.4889 0
M  V30 10 Ba -1.9123 -2.1543 -0.0000 0
M  V30 11 Pb -1.7543 -2.0641 -1.4889 0
M  V30 12 Pb 1.5035 -2.0806 1.4889 0
M  V30 13 Ba 1.6606 -2.1724 -0.0000 0
M  V30 14 Pb 1.5035 -2.0806 -1.4889 0
M  V30 15 Pb -0.1111 0.7490 1.4889 0
M  V30 16 Ba -0.1102 0.9309 -0.0000 0
M  V30 17 Pb -0.1111 0.7490 -1.4889 0
M  V30 END ATOM
M  V30 BEGIN BOND
M  V30 1 1 1 2
M  V30 2 1 1 3
M  V30 3 1 1 4
M  V30 4 1 5 6
M  V30 5 1 5 7
M  V30 6 1 5 8
M  V30 7 1 9 10
M  V30 8 1 10 11
M  V30 9 1 12 13
M  V30 10 1 13 14
M  V30 11 1 15 16
M  V30 12 1 16 17
M  V30 13 1 2 9
M  V30 14 1 3 12
M  V30 15 1 4 15
M  V30 16 1 6 11
M  V30 17 1 8 14
M  V30 18 1 7 17
M  V30 END BOND
M  V30 END CTAB
M  END

$$$$
