
     RDKit          3D

  0  0  0  0  0  0  0  0  0  0999 V3000
M  V30 BEGIN CTAB
M  V30 COUNTS 34 36 0 0 0
M  V30 BEGIN ATOM
M  V30 1 Ag -0.0297 -0.0172 1.6756 0
M  V30 2 Fe -1.0089 -0.5825 2.6614 0
M  V30 3 Fe 0.9503 -0.5825 2.6605 0
M  V30 4 Fe -0.0293 1.1142 2.6605 0
M  V30 5 Ag -1.3184 -0.7612 -0.4265 0
M  V30 6 Fe -2.4490 -1.4139 0.3122 0
M  V30 7 Fe -2.4497 -0.2832 -1.2877 0
M  V30 8 Fe -1.4701 -1.9799 -1.2877 0
M  V30 9 Ag 1.2571 -0.7612 -0.4276 0
M  V30 10 Fe 2.3883 -1.4139 0.3101 0
M  V30 11 Fe 1.4081 -1.9799 -1.2889 0
M  V30 12 Fe 2.3877 -0.2832 -1.2898 0
M  V30 13 Ag -0.0306 1.4693 -0.4276 0
M  V30 14 Fe -0.0303 2.7753 0.3101 0
M  V30 15 Fe 0.9486 2.2094 -1.2898 0
M  V30 16 Fe -1.0106 2.2094 -1.2889 0
M  V30 17 Pb -1.6841 -0.9723 3.2875 0
M  V30 18 Ba -2.4559 -1.4179 2.0810 0
M  V30 19 Pb -3.1848 -1.8388 0.8394 0
M  V30 20 Pb 1.6260 -0.9723 3.2861 0
M  V30 21 Ba 2.3968 -1.4179 2.0789 0
M  V30 22 Pb 3.1247 -1.8388 0.8367 0
M  V30 23 Pb -0.0290 1.8944 3.2861 0
M  V30 24 Ba -0.0295 2.7847 2.0789 0
M  V30 25 Pb -0.0301 3.6254 0.8367 0
M  V30 26 Pb -1.5309 -2.7950 -1.8638 0
M  V30 27 Ba -0.0313 -2.8198 -1.8819 0
M  V30 28 Pb 1.4684 -2.7950 -1.8651 0
M  V30 29 Pb -3.1860 0.0717 -1.8638 0
M  V30 30 Ba -2.4576 1.3828 -1.8819 0
M  V30 31 Pb -1.6863 2.6692 -1.8651 0
M  V30 32 Pb 3.1235 0.0717 -1.8665 0
M  V30 33 Ba 2.3951 1.3828 -1.8840 0
M  V30 34 Pb 1.6238 2.6692 -1.8665 0
M  V30 END ATOM
M  V30 BEGIN BOND
M  V30 1 1 1 2
M  V30 2 1 1 3
M  V30 3 1 1 4
M  V30 4 1 5 6
M  V30 5 1 5 7
M  V30 6 1 5 8
M  V30 7 1 9 10
M  V30 8 1 9 11
M  V30 9 1 9 12
M  V30 10 1 13 14
M  V30 11 1 13 15
M  V30 12 1 13 16
M  V30 13 1 17 18
M  V30 14 1 18 19
M  V30 15 1 20 21
M  V30 16 1 21 22
M  V30 17 1 23 24
M  V30 18 1 24 25
M  V30 19 1 26 27
M  V30 20 1 27 28
M  V30 21 1 29 30
M  V30 22 1 30 31
M  V30 23 1 32 33
M  V30 24 1 33 34
M  V30 25 1 2 17
M  V30 26 1 6 19
M  V30 27 1 3 20
M  V30 28 1 10 22
M  V30 29 1 4 23
M  V30 30 1 14 25
M  V30 31 1 8 26
M  V30 32 1 11 28
M  V30 33 1 7 29
M  V30 34 1 16 31
M  V30 35 1 12 32
M  V30 36 1 15 34
M  V30 END BOND
M  V30 END CTAB
M  END

$$$$
