
     RDKit          3D

  0  0  0  0  0  0  0  0  0  0999 V3000
M  V30 BEGIN CTAB
M  V30 COUNTS 34 36 0 0 0
M  V30 BEGIN ATOM
M  V30 1 Ag -3.9434 2.5973 1.2533 0
M  V30 2 Fe -3.5622 1.1644 1.4798 0
M  V30 3 Fe -3.2922 2.2457 -0.0514 0
M  V30 4 Fe -2.4884 2.7200 1.5965 0
M  V30 5 Ag -0.5972 -4.5621 1.6818 0
M  V30 6 Fe -1.4587 -3.3360 1.7491 0
M  V30 7 Fe 0.4158 -3.4936 1.9684 0
M  V30 8 Fe -0.3880 -3.9679 0.3204 0
M  V30 9 Ag 0.5310 -0.0432 -4.7171 0
M  V30 10 Fe -0.4795 0.5859 -3.8044 0
M  V30 11 Fe 0.3212 -1.1273 -3.7019 0
M  V30 12 Fe 1.3950 0.4284 -3.5851 0
M  V30 13 Ag 3.8902 1.9390 2.1696 0
M  V30 14 Fe 2.4358 2.3062 2.1725 0
M  V30 15 Fe 3.5065 1.6744 0.7438 0
M  V30 16 Fe 3.2366 0.5930 2.2750 0
M  V30 17 Pb -3.2687 0.2172 1.6092 0
M  V30 18 Ba -2.6620 -1.1511 1.7072 0
M  V30 19 Pb -2.0006 -2.4959 1.7716 0
M  V30 20 Pb -2.8266 1.9879 -0.8980 0
M  V30 21 Ba -1.9993 1.5034 -2.0516 0
M  V30 22 Pb -1.1310 0.9872 -3.1605 0
M  V30 23 Pb -1.5104 2.7645 1.8004 0
M  V30 24 Ba -0.0261 2.6677 1.9937 0
M  V30 25 Pb 1.4582 2.5150 2.1476 0
M  V30 26 Pb -0.2474 -3.5305 -0.5677 0
M  V30 27 Ba -0.0336 -2.7022 -1.7999 0
M  V30 28 Pb 0.1802 -1.8180 -2.9926 0
M  V30 29 Pb 1.0688 -2.7538 2.1306 0
M  V30 30 Ba 1.9396 -1.5378 2.2454 0
M  V30 31 Pb 2.7693 -0.2902 2.3155 0
M  V30 32 Pb 1.9384 0.7293 -2.8015 0
M  V30 33 Ba 2.6023 1.1167 -1.5134 0
M  V30 34 Pb 3.2114 1.4804 -0.1917 0
M  V30 END ATOM
M  V30 BEGIN BOND
M  V30 1 1 1 2
M  V30 2 1 1 3
M  V30 3 1 1 4
M  V30 4 1 5 6
M  V30 5 1 5 7
M  V30 6 1 5 8
M  V30 7 1 9 10
M  V30 8 1 9 11
M  V30 9 1 9 12
M  V30 10 1 13 14
M  V30 11 1 13 15
M  V30 12 1 13 16
M  V30 13 1 17 18
M  V30 14 1 18 19
M  V30 15 1 20 21
M  V30 16 1 21 22
M  V30 17 1 23 24
M  V30 18 1 24 25
M  V30 19 1 26 27
M  V30 20 1 27 28
M  V30 21 1 29 30
M  V30 22 1 30 31
M  V30 23 1 32 33
M  V30 24 1 33 34
M  V30 25 1 2 17
M  V30 26 1 6 19
M  V30 27 1 3 20
M  V30 28 1 10 22
M  V30 29 1 4 23
M  V30 30 1 14 25
M  V30 31 1 8 26
M  V30 32 1 11 28
M  V30 33 1 7 29
M  V30 34 1 16 31
M  V30 35 1 12 32
M  V30 36 1 15 34
M  V30 END BOND
M  V30 END CTAB
M  END

$$$$
