
     RDKit          3D

  0  0  0  0  0  0  0  0  0  0999 V3000
M  V30 BEGIN CTAB
M  V30 COUNTS 51 54 0 0 0
M  V30 BEGIN ATOM
M  V30 1 Ag -3.8766 -2.3289 -3.8730 0
M  V30 2 Fe -4.3106 -2.5976 -2.4626 0
M  V30 3 Fe -3.6447 -0.8489 -3.7972 0
M  V30 4 Fe -2.4595 -2.8163 -3.8073 0
M  V30 5 Ag -3.8527 -2.3541 3.8266 0
M  V30 6 Fe -4.2955 -2.6136 2.4171 0
M  V30 7 Fe -2.4361 -2.8410 3.7489 0
M  V30 8 Fe -3.6212 -0.8736 3.7590 0
M  V30 9 Ag 3.8150 -2.1859 -3.8964 0
M  V30 10 Fe 2.4175 -2.7256 -3.8221 0
M  V30 11 Fe 3.5287 -0.7155 -3.8190 0
M  V30 12 Fe 4.2673 -2.4381 -2.4886 0
M  V30 13 Ag 3.8389 -2.2111 3.8033 0
M  V30 14 Fe 4.2824 -2.4540 2.3911 0
M  V30 15 Fe 3.5521 -0.7402 3.7372 0
M  V30 16 Fe 2.4409 -2.7503 3.7341 0
M  V30 17 Ag -0.1546 4.4037 -3.8626 0
M  V30 18 Fe -1.2847 3.4200 -3.7906 0
M  V30 19 Fe -0.1597 4.9108 -2.4509 0
M  V30 20 Fe 1.0117 3.4627 -3.7975 0
M  V30 21 Ag -0.1307 4.3786 3.8371 0
M  V30 22 Fe -1.2612 3.3953 3.7657 0
M  V30 23 Fe 1.0351 3.4380 3.7587 0
M  V30 24 Fe -0.1446 4.8948 2.4288 0
M  V30 25 Pb -4.6002 -2.7769 -1.5224 0
M  V30 26 Ba -4.5953 -2.7817 -0.0224 0
M  V30 27 Pb -4.5909 -2.7867 1.4776 0
M  V30 28 Pb -1.5143 -3.1397 -3.7637 0
M  V30 29 Ba -0.0145 -3.1130 -3.7681 0
M  V30 30 Pb 1.4852 -3.0840 -3.7728 0
M  V30 31 Pb 4.5691 -2.6064 -1.5502 0
M  V30 32 Ba 4.5735 -2.6112 -0.0503 0
M  V30 33 Pb 4.5784 -2.6162 1.4497 0
M  V30 34 Pb -1.4911 -3.1641 3.6973 0
M  V30 35 Ba 0.0086 -3.1374 3.6926 0
M  V30 36 Pb 1.5083 -3.1084 3.6882 0
M  V30 37 Pb -3.4885 0.1375 -3.7468 0
M  V30 38 Ba -2.7638 1.4508 -3.7446 0
M  V30 39 Pb -2.0371 2.7630 -3.7428 0
M  V30 40 Pb 3.3363 0.2645 -3.7676 0
M  V30 41 Ba 2.5632 1.5499 -3.7608 0
M  V30 42 Pb 1.7883 2.8342 -3.7544 0
M  V30 43 Pb -3.4654 0.1131 3.7142 0
M  V30 44 Ba -2.7407 1.4264 3.7160 0
M  V30 45 Pb -2.0139 2.7386 3.7182 0
M  V30 46 Pb 3.3594 0.2401 3.6934 0
M  V30 47 Ba 2.5864 1.5255 3.6999 0
M  V30 48 Pb 1.8114 2.8098 3.7066 0
M  V30 49 Pb -0.1632 5.2492 -1.5099 0
M  V30 50 Ba -0.1585 5.2440 -0.0099 0
M  V30 51 Pb -0.1539 5.2394 1.4901 0
M  V30 END ATOM
M  V30 BEGIN BOND
M  V30 1 1 1 2
M  V30 2 1 1 3
M  V30 3 1 1 4
M  V30 4 1 5 6
M  V30 5 1 5 7
M  V30 6 1 5 8
M  V30 7 1 9 10
M  V30 8 1 9 11
M  V30 9 1 9 12
M  V30 10 1 13 14
M  V30 11 1 13 15
M  V30 12 1 13 16
M  V30 13 1 17 18
M  V30 14 1 17 19
M  V30 15 1 17 20
M  V30 16 1 21 22
M  V30 17 1 21 23
M  V30 18 1 21 24
M  V30 19 1 25 26
M  V30 20 1 26 27
M  V30 21 1 28 29
M  V30 22 1 29 30
M  V30 23 1 31 32
M  V30 24 1 32 33
M  V30 25 1 34 35
M  V30 26 1 35 36
M  V30 27 1 37 38
M  V30 28 1 38 39
M  V30 29 1 40 41
M  V30 30 1 41 42
M  V30 31 1 43 44
M  V30 32 1 44 45
M  V30 33 1 46 47
M  V30 34 1 47 48
M  V30 35 1 49 50
M  V30 36 1 50 51
M  V30 37 1 2 25
M  V30 38 1 6 27
M  V30 39 1 4 28
M  V30 40 1 10 30
M  V30 41 1 12 31
M  V30 42 1 14 33
M  V30 43 1 7 34
M  V30 44 1 16 36
M  V30 45 1 3 37
M  V30 46 1 18 39
M  V30 47 1 11 40
M  V30 48 1 20 42
M  V30 49 1 8 43
M  V30 50 1 22 45
M  V30 51 1 15 46
M  V30 52 1 23 48
M  V30 53 1 19 49
M  V30 54 1 24 51
M  V30 END BOND
M  V30 END CTAB
M  END

$$$$
