
     RDKit          3D

  0  0  0  0  0  0  0  0  0  0999 V3000
M  V30 BEGIN CTAB
M  V30 COUNTS 34 36 0 0 0
M  V30 BEGIN ATOM
M  V30 1 Ag -0.0354 -0.0204 4.8237 0
M  V30 2 Fe -1.0671 -0.6161 3.9123 0
M  V30 3 Fe 0.9996 -0.6161 3.9159 0
M  V30 4 Fe -0.0338 1.1738 3.9159 0
M  V30 5 Ag -3.8917 -2.2469 -1.5008 0
M  V30 6 Fe -3.4965 -2.0187 -0.0719 0
M  V30 7 Fe -3.4936 -0.8238 -1.7582 0
M  V30 8 Fe -2.4602 -2.6136 -1.7582 0
M  V30 9 Ag 3.8432 -2.2469 -1.4873 0
M  V30 10 Fe 3.4430 -2.0187 -0.0598 0
M  V30 11 Fe 2.4125 -2.6136 -1.7497 0
M  V30 12 Fe 3.4459 -0.8238 -1.7461 0
M  V30 13 Ag -0.0243 4.4517 -1.4873 0
M  V30 14 Fe -0.0268 3.9911 -0.0598 0
M  V30 15 Fe 1.0095 3.3961 -1.7461 0
M  V30 16 Fe -1.0572 3.3961 -1.7497 0
M  V30 17 Pb -1.7818 -1.0287 3.3475 0
M  V30 18 Ba -2.5014 -1.4442 2.0987 0
M  V30 19 Pb -3.2770 -1.8920 0.8954 0
M  V30 20 Pb 1.7163 -1.0287 3.3537 0
M  V30 21 Ba 2.4402 -1.4442 2.1073 0
M  V30 22 Pb 3.2200 -1.8920 0.9068 0
M  V30 23 Pb -0.0328 2.0007 3.3537 0
M  V30 24 Ba -0.0306 2.8353 2.1073 0
M  V30 25 Pb -0.0285 3.7346 0.9068 0
M  V30 26 Pb -1.5230 -2.8989 -1.9587 0
M  V30 27 Ba -0.0235 -2.8666 -1.9332 0
M  V30 28 Pb 1.4760 -2.8989 -1.9535 0
M  V30 29 Pb -3.2720 0.1305 -1.9587 0
M  V30 30 Ba -2.4943 1.4129 -1.9332 0
M  V30 31 Pb -1.7725 2.7277 -1.9535 0
M  V30 32 Pb 3.2250 0.1305 -1.9473 0
M  V30 33 Ba 2.4473 1.4129 -1.9245 0
M  V30 34 Pb 1.7255 2.7277 -1.9473 0
M  V30 END ATOM
M  V30 BEGIN BOND
M  V30 1 1 1 2
M  V30 2 1 1 3
M  V30 3 1 1 4
M  V30 4 1 5 6
M  V30 5 1 5 7
M  V30 6 1 5 8
M  V30 7 1 9 10
M  V30 8 1 9 11
M  V30 9 1 9 12
M  V30 10 1 13 14
M  V30 11 1 13 15
M  V30 12 1 13 16
M  V30 13 1 17 18
M  V30 14 1 18 19
M  V30 15 1 20 21
M  V30 16 1 21 22
M  V30 17 1 23 24
M  V30 18 1 24 25
M  V30 19 1 26 27
M  V30 20 1 27 28
M  V30 21 1 29 30
M  V30 22 1 30 31
M  V30 23 1 32 33
M  V30 24 1 33 34
M  V30 25 1 2 17
M  V30 26 1 6 19
M  V30 27 1 3 20
M  V30 28 1 10 22
M  V30 29 1 4 23
M  V30 30 1 14 25
M  V30 31 1 8 26
M  V30 32 1 11 28
M  V30 33 1 7 29
M  V30 34 1 16 31
M  V30 35 1 12 32
M  V30 36 1 15 34
M  V30 END BOND
M  V30 END CTAB
M  END

$$$$
