
     RDKit          3D

  0  0  0  0  0  0  0  0  0  0999 V3000
M  V30 BEGIN CTAB
M  V30 COUNTS 34 36 0 0 0
M  V30 BEGIN ATOM
M  V30 1 Ag -0.0649 -0.0375 4.9236 0
M  V30 2 Fe -1.0277 -0.5934 3.9167 0
M  V30 3 Fe 0.9112 -0.5934 3.9295 0
M  V30 4 Fe -0.0583 1.0858 3.9295 0
M  V30 5 Ag -3.9547 -2.2833 -1.5329 0
M  V30 6 Fe -3.4719 -2.0045 -0.1404 0
M  V30 7 Fe -3.4614 -0.8790 -1.7192 0
M  V30 8 Fe -2.4920 -2.5582 -1.7192 0
M  V30 9 Ag 3.9103 -2.2834 -1.4807 0
M  V30 10 Fe 3.4090 -2.0046 -0.0947 0
M  V30 11 Fe 2.4501 -2.5582 -1.6863 0
M  V30 12 Fe 3.4195 -0.8791 -1.6734 0
M  V30 13 Ag -0.0223 4.5281 -1.4807 0
M  V30 14 Fe -0.0315 3.9546 -0.0947 0
M  V30 15 Fe 0.9484 3.4009 -1.6734 0
M  V30 16 Fe -0.9905 3.4010 -1.6863 0
M  V30 17 Pb -1.6776 -0.9686 3.2557 0
M  V30 18 Ba -2.4120 -1.3926 2.0184 0
M  V30 19 Pb -3.1613 -1.8252 0.7931 0
M  V30 20 Pb 1.5698 -0.9686 3.2773 0
M  V30 21 Ba 2.3205 -1.3927 2.0499 0
M  V30 22 Pb 3.0860 -1.8252 0.8346 0
M  V30 23 Pb -0.0540 1.8438 3.2773 0
M  V30 24 Ba -0.0458 2.7060 2.0499 0
M  V30 25 Pb -0.0377 3.5852 0.8346 0
M  V30 26 Pb -1.5199 -2.7525 -1.8512 0
M  V30 27 Ba -0.0200 -2.7440 -1.8352 0
M  V30 28 Pb 1.4799 -2.7525 -1.8313 0
M  V30 29 Pb -3.1437 0.0599 -1.8512 0
M  V30 30 Ba -2.3864 1.3546 -1.8352 0
M  V30 31 Pb -1.6438 2.6579 -1.8313 0
M  V30 32 Pb 3.1036 0.0599 -1.8097 0
M  V30 33 Ba 2.3462 1.3546 -1.8037 0
M  V30 34 Pb 1.6036 2.6579 -1.8097 0
M  V30 END ATOM
M  V30 BEGIN BOND
M  V30 1 1 1 2
M  V30 2 1 1 3
M  V30 3 1 1 4
M  V30 4 1 5 6
M  V30 5 1 5 7
M  V30 6 1 5 8
M  V30 7 1 9 10
M  V30 8 1 9 11
M  V30 9 1 9 12
M  V30 10 1 13 14
M  V30 11 1 13 15
M  V30 12 1 13 16
M  V30 13 1 17 18
M  V30 14 1 18 19
M  V30 15 1 20 21
M  V30 16 1 21 22
M  V30 17 1 23 24
M  V30 18 1 24 25
M  V30 19 1 26 27
M  V30 20 1 27 28
M  V30 21 1 29 30
M  V30 22 1 30 31
M  V30 23 1 32 33
M  V30 24 1 33 34
M  V30 25 1 2 17
M  V30 26 1 6 19
M  V30 27 1 3 20
M  V30 28 1 10 22
M  V30 29 1 4 23
M  V30 30 1 14 25
M  V30 31 1 8 26
M  V30 32 1 11 28
M  V30 33 1 7 29
M  V30 34 1 16 31
M  V30 35 1 12 32
M  V30 36 1 15 34
M  V30 END BOND
M  V30 END CTAB
M  END

$$$$
