
     RDKit          3D

  0  0  0  0  0  0  0  0  0  0999 V3000
M  V30 BEGIN CTAB
M  V30 COUNTS 51 54 0 0 0
M  V30 BEGIN ATOM
M  V30 1 Ag -1.1631 -3.7214 -2.0704 0
M  V30 2 Fe -0.7101 -2.4498 -1.4173 0
M  V30 3 Fe -1.8728 -2.7489 -2.9662 0
M  V30 4 Fe -0.0375 -3.3324 -2.9823 0
M  V30 5 Ag -3.8258 0.6899 2.0084 0
M  V30 6 Fe -2.4886 0.4965 1.3579 0
M  V30 7 Fe -3.3000 -0.3933 2.9039 0
M  V30 8 Fe -2.9576 1.5018 2.9231 0
M  V30 9 Ag 3.6758 0.8280 -2.0637 0
M  V30 10 Fe 3.1904 -0.2742 -2.9590 0
M  V30 11 Fe 2.7782 1.6069 -2.9786 0
M  V30 12 Fe 2.3468 0.5855 -1.4131 0
M  V30 13 Ag 1.1780 -3.6774 2.0166 0
M  V30 14 Fe 0.6784 -2.4237 1.3632 0
M  V30 15 Fe 1.8512 -2.6791 2.9122 0
M  V30 16 Fe 0.0388 -3.3301 2.9283 0
M  V30 17 Ag -2.6835 2.7439 -2.0734 0
M  V30 18 Fe -2.9073 1.5757 -2.9871 0
M  V30 19 Fe -1.8103 1.7151 -1.4194 0
M  V30 20 Fe -1.4844 2.8733 -2.9663 0
M  V30 21 Ag 2.4583 2.8396 2.0179 0
M  V30 22 Fe 1.2552 2.9248 2.9107 0
M  V30 23 Fe 2.7251 1.6807 2.9320 0
M  V30 24 Fe 1.6238 1.7791 1.3642 0
M  V30 25 Pb -0.3958 -1.6115 -0.9729 0
M  V30 26 Ba -1.0006 -0.6160 -0.0288 0
M  V30 27 Pb -1.5997 0.3829 0.9153 0
M  V30 28 Pb 0.7110 -3.0723 -3.5921 0
M  V30 29 Ba 1.7948 -2.0351 -3.5713 0
M  V30 30 Pb 2.8861 -1.0054 -3.5704 0
M  V30 31 Pb 1.4627 0.4392 -0.9704 0
M  V30 32 Ba 0.9010 -0.5809 -0.0259 0
M  V30 33 Pb 0.3333 -1.5977 0.9185 0
M  V30 34 Pb -2.9689 -1.1126 3.5156 0
M  V30 35 Ba -1.8404 -2.1012 3.5168 0
M  V30 36 Pb -0.7189 -3.0977 3.5380 0
M  V30 37 Pb -2.3525 -2.1191 -3.5781 0
M  V30 38 Ba -2.6986 -0.6592 -3.5781 0
M  V30 39 Pb -3.0549 0.7981 -3.5981 0
M  V30 40 Pb 2.1799 2.1242 -3.5905 0
M  V30 41 Ba 0.7397 2.5443 -3.5734 0
M  V30 42 Pb -0.6976 2.9745 -3.5762 0
M  V30 43 Pb -2.3790 2.0410 3.5349 0
M  V30 44 Ba -0.9552 2.5140 3.5178 0
M  V30 45 Pb 0.4652 2.9970 3.5206 0
M  V30 46 Pb 2.3072 -2.0318 3.5240 0
M  V30 47 Ba 2.5991 -0.5602 3.5236 0
M  V30 48 Pb 2.9013 0.9093 3.5432 0
M  V30 49 Pb -1.2426 1.0233 -0.9745 0
M  V30 50 Ba -0.0803 1.0483 -0.0275 0
M  V30 51 Pb 1.0821 1.0665 0.9194 0
M  V30 END ATOM
M  V30 BEGIN BOND
M  V30 1 1 1 2
M  V30 2 1 1 3
M  V30 3 1 1 4
M  V30 4 1 5 6
M  V30 5 1 5 7
M  V30 6 1 5 8
M  V30 7 1 9 10
M  V30 8 1 9 11
M  V30 9 1 9 12
M  V30 10 1 13 14
M  V30 11 1 13 15
M  V30 12 1 13 16
M  V30 13 1 17 18
M  V30 14 1 17 19
M  V30 15 1 17 20
M  V30 16 1 21 22
M  V30 17 1 21 23
M  V30 18 1 21 24
M  V30 19 1 25 26
M  V30 20 1 26 27
M  V30 21 1 28 29
M  V30 22 1 29 30
M  V30 23 1 31 32
M  V30 24 1 32 33
M  V30 25 1 34 35
M  V30 26 1 35 36
M  V30 27 1 37 38
M  V30 28 1 38 39
M  V30 29 1 40 41
M  V30 30 1 41 42
M  V30 31 1 43 44
M  V30 32 1 44 45
M  V30 33 1 46 47
M  V30 34 1 47 48
M  V30 35 1 49 50
M  V30 36 1 50 51
M  V30 37 1 2 25
M  V30 38 1 6 27
M  V30 39 1 4 28
M  V30 40 1 10 30
M  V30 41 1 12 31
M  V30 42 1 14 33
M  V30 43 1 7 34
M  V30 44 1 16 36
M  V30 45 1 3 37
M  V30 46 1 18 39
M  V30 47 1 11 40
M  V30 48 1 20 42
M  V30 49 1 8 43
M  V30 50 1 22 45
M  V30 51 1 15 46
M  V30 52 1 23 48
M  V30 53 1 19 49
M  V30 54 1 24 51
M  V30 END BOND
M  V30 END CTAB
M  END

$$$$
