
     RDKit          3D

  0  0  0  0  0  0  0  0  0  0999 V3000
M  V30 BEGIN CTAB
M  V30 COUNTS 34 36 0 0 0
M  V30 BEGIN ATOM
M  V30 1 Ag -0.0527 -0.0304 4.8939 0
M  V30 2 Fe -1.0479 -0.6050 3.9297 0
M  V30 3 Fe 0.9523 -0.6050 3.9401 0
M  V30 4 Fe -0.0478 1.1272 3.9401 0
M  V30 5 Ag -3.9419 -2.2759 -1.5381 0
M  V30 6 Fe -3.5009 -2.0213 -0.1272 0
M  V30 7 Fe -3.4925 -0.8616 -1.7568 0
M  V30 8 Fe -2.4924 -2.5938 -1.7568 0
M  V30 9 Ag 3.9026 -2.2759 -1.4976 0
M  V30 10 Fe 3.4471 -2.0213 -0.0913 0
M  V30 11 Fe 2.4554 -2.5938 -1.7313 0
M  V30 12 Fe 3.4555 -0.8616 -1.7210 0
M  V30 13 Ag -0.0197 4.5177 -1.4976 0
M  V30 14 Fe -0.0270 3.9959 -0.0913 0
M  V30 15 Fe 0.9816 3.4234 -1.7210 0
M  V30 16 Fe -1.0186 3.4234 -1.7313 0
M  V30 17 Pb -1.6911 -0.9764 3.2602 0
M  V30 18 Ba -2.4536 -1.4166 2.0458 0
M  V30 19 Pb -3.1782 -1.8350 0.8008 0
M  V30 20 Pb 1.6025 -0.9764 3.2772 0
M  V30 21 Ba 2.3774 -1.4166 2.0707 0
M  V30 22 Pb 3.1149 -1.8350 0.8333 0
M  V30 23 Pb -0.0444 1.8760 3.2772 0
M  V30 24 Ba -0.0381 2.7672 2.0707 0
M  V30 25 Pb -0.0317 3.6150 0.8333 0
M  V30 26 Pb -1.5175 -2.7777 -1.8827 0
M  V30 27 Ba -0.0177 -2.7994 -1.8904 0
M  V30 28 Pb 1.4819 -2.7778 -1.8672 0
M  V30 29 Pb -3.1644 0.0746 -1.8827 0
M  V30 30 Ba -2.4332 1.3844 -1.8904 0
M  V30 31 Pb -1.6646 2.6723 -1.8672 0
M  V30 32 Pb 3.1287 0.0746 -1.8502 0
M  V30 33 Ba 2.3977 1.3843 -1.8654 0
M  V30 34 Pb 1.6290 2.6723 -1.8502 0
M  V30 END ATOM
M  V30 BEGIN BOND
M  V30 1 1 1 2
M  V30 2 1 1 3
M  V30 3 1 1 4
M  V30 4 1 5 6
M  V30 5 1 5 7
M  V30 6 1 5 8
M  V30 7 1 9 10
M  V30 8 1 9 11
M  V30 9 1 9 12
M  V30 10 1 13 14
M  V30 11 1 13 15
M  V30 12 1 13 16
M  V30 13 1 17 18
M  V30 14 1 18 19
M  V30 15 1 20 21
M  V30 16 1 21 22
M  V30 17 1 23 24
M  V30 18 1 24 25
M  V30 19 1 26 27
M  V30 20 1 27 28
M  V30 21 1 29 30
M  V30 22 1 30 31
M  V30 23 1 32 33
M  V30 24 1 33 34
M  V30 25 1 2 17
M  V30 26 1 6 19
M  V30 27 1 3 20
M  V30 28 1 10 22
M  V30 29 1 4 23
M  V30 30 1 14 25
M  V30 31 1 8 26
M  V30 32 1 11 28
M  V30 33 1 7 29
M  V30 34 1 16 31
M  V30 35 1 12 32
M  V30 36 1 15 34
M  V30 END BOND
M  V30 END CTAB
M  END

$$$$
