
     RDKit          3D

  0  0  0  0  0  0  0  0  0  0999 V3000
M  V30 BEGIN CTAB
M  V30 COUNTS 34 36 0 0 0
M  V30 BEGIN ATOM
M  V30 1 Ag 2.9385 -1.2816 2.9301 0
M  V30 2 Fe 2.0780 -0.0560 2.8434 0
M  V30 3 Fe 3.0837 -0.0618 2.0692 0
M  V30 4 Fe 2.0764 -0.7876 1.8063 0
M  V30 5 Ag -2.9297 -1.2813 2.9390 0
M  V30 6 Fe -2.0694 -0.0557 2.8497 0
M  V30 7 Fe -2.0709 -0.7874 1.8126 0
M  V30 8 Fe -3.0774 -0.0615 2.0784 0
M  V30 9 Ag 2.9297 -1.2812 -2.9391 0
M  V30 10 Fe 2.0694 -0.0556 -2.8497 0
M  V30 11 Fe 2.0709 -0.7873 -1.8127 0
M  V30 12 Fe 3.0774 -0.0615 -2.0784 0
M  V30 13 Ag -2.9386 -1.2813 -2.9301 0
M  V30 14 Fe -2.0780 -0.0557 -2.8434 0
M  V30 15 Fe -3.0837 -0.0616 -2.0692 0
M  V30 16 Fe -2.0764 -0.7874 -1.8064 0
M  V30 17 Pb 1.5043 0.7611 2.7861 0
M  V30 18 Ba 0.0043 0.7612 2.7884 0
M  V30 19 Pb -1.4957 0.7613 2.7906 0
M  V30 20 Pb 1.5016 -0.4585 1.0571 0
M  V30 21 Ba 0.0016 -0.4585 1.0594 0
M  V30 22 Pb -1.4984 -0.4584 1.0616 0
M  V30 23 Pb 1.4957 0.7615 -2.7906 0
M  V30 24 Ba -0.0043 0.7614 -2.7883 0
M  V30 25 Pb -1.5043 0.7613 -2.7860 0
M  V30 26 Pb 1.4984 -0.4584 -1.0617 0
M  V30 27 Ba -0.0016 -0.4584 -1.0594 0
M  V30 28 Pb -1.5016 -0.4584 -1.0571 0
M  V30 29 Pb 3.1808 0.7514 1.4953 0
M  V30 30 Ba 3.1785 0.7515 -0.0047 0
M  V30 31 Pb 3.1763 0.7517 -1.5047 0
M  V30 32 Pb -3.1762 0.7517 1.5048 0
M  V30 33 Ba -3.1785 0.7515 0.0048 0
M  V30 34 Pb -3.1808 0.7516 -1.4952 0
M  V30 END ATOM
M  V30 BEGIN BOND
M  V30 1 1 1 2
M  V30 2 1 1 3
M  V30 3 1 1 4
M  V30 4 1 5 6
M  V30 5 1 5 7
M  V30 6 1 5 8
M  V30 7 1 9 10
M  V30 8 1 9 11
M  V30 9 1 9 12
M  V30 10 1 13 14
M  V30 11 1 13 15
M  V30 12 1 13 16
M  V30 13 1 17 18
M  V30 14 1 18 19
M  V30 15 1 20 21
M  V30 16 1 21 22
M  V30 17 1 23 24
M  V30 18 1 24 25
M  V30 19 1 26 27
M  V30 20 1 27 28
M  V30 21 1 29 30
M  V30 22 1 30 31
M  V30 23 1 32 33
M  V30 24 1 33 34
M  V30 25 1 2 17
M  V30 26 1 6 19
M  V30 27 1 4 20
M  V30 28 1 7 22
M  V30 29 1 10 23
M  V30 30 1 14 25
M  V30 31 1 11 26
M  V30 32 1 16 28
M  V30 33 1 3 29
M  V30 34 1 12 31
M  V30 35 1 8 32
M  V30 36 1 15 34
M  V30 END BOND
M  V30 END CTAB
M  END

$$$$
