
     RDKit          3D

  0  0  0  0  0  0  0  0  0  0999 V3000
M  V30 BEGIN CTAB
M  V30 COUNTS 51 54 0 0 0
M  V30 BEGIN ATOM
M  V30 1 Ag -1.8311 -1.0809 -2.1682 0
M  V30 2 Fe -3.0575 -1.8096 -1.7045 0
M  V30 3 Fe -2.6724 -0.2857 -3.1226 0
M  V30 4 Fe -1.5458 -2.1907 -3.1367 0
M  V30 5 Ag -1.8103 -1.1005 2.1214 0
M  V30 6 Fe -3.0412 -1.8249 1.6630 0
M  V30 7 Fe -1.5158 -2.2190 3.0769 0
M  V30 8 Fe -2.6423 -0.3140 3.0911 0
M  V30 9 Ag 1.8735 -1.1950 -1.9982 0
M  V30 10 Fe 1.6174 -2.4642 -2.7550 0
M  V30 11 Fe 2.3336 -0.5102 -3.2508 0
M  V30 12 Fe 3.2834 -1.5962 -1.6801 0
M  V30 13 Ag 1.8924 -1.2129 1.9146 0
M  V30 14 Fe 3.2992 -1.6111 1.5793 0
M  V30 15 Fe 2.3646 -0.5395 3.1690 0
M  V30 16 Fe 1.6435 -2.4889 2.6622 0
M  V30 17 Ag -0.1450 2.2183 -1.9729 0
M  V30 18 Fe -1.3855 2.6136 -2.7174 0
M  V30 19 Fe 0.1849 3.6435 -1.6413 0
M  V30 20 Fe 0.6686 2.3053 -3.2300 0
M  V30 21 Ag -0.1261 2.2005 1.9399 0
M  V30 22 Fe -1.3593 2.5889 2.6999 0
M  V30 23 Fe 0.6996 2.2760 3.1898 0
M  V30 24 Fe 0.2007 3.6287 1.6181 0
M  V30 25 Pb -3.9022 -2.3105 -1.5160 0
M  V30 26 Ba -3.8142 -2.2696 -0.0191 0
M  V30 27 Pb -3.8877 -2.3241 1.4781 0
M  V30 28 Pb -1.4330 -2.9705 -3.7529 0
M  V30 29 Ba 0.0409 -3.0916 -3.5005 0
M  V30 30 Pb 1.5150 -3.2919 -3.3062 0
M  V30 31 Pb 4.2377 -1.8675 -1.5547 0
M  V30 32 Ba 4.1817 -1.8563 -0.0559 0
M  V30 33 Pb 4.2522 -1.8811 1.4422 0
M  V30 34 Pb -1.3970 -3.0044 3.6849 0
M  V30 35 Ba 0.0743 -3.1231 3.4172 0
M  V30 36 Pb 1.5464 -3.3216 3.2069 0
M  V30 37 Pb -3.3053 0.1957 -3.7294 0
M  V30 38 Ba -2.6996 1.5427 -3.4662 0
M  V30 39 Pb -2.1636 2.9287 -3.2602 0
M  V30 40 Pb 2.6958 -0.1300 -4.1018 0
M  V30 41 Ba 1.9032 1.1412 -4.0328 0
M  V30 42 Pb 1.1708 2.4488 -4.0827 0
M  V30 43 Pb -3.2693 0.1618 3.7084 0
M  V30 44 Ba -2.6661 1.5111 3.4515 0
M  V30 45 Pb -2.1321 2.8990 3.2530 0
M  V30 46 Pb 2.7350 -0.1670 4.0198 0
M  V30 47 Ba 1.9418 1.1047 3.9700 0
M  V30 48 Pb 1.2101 2.4118 4.0388 0
M  V30 49 Pb 0.4078 4.6090 -1.5068 0
M  V30 50 Ba 0.4003 4.5381 -0.0085 0
M  V30 51 Pb 0.4223 4.5954 1.4902 0
M  V30 END ATOM
M  V30 BEGIN BOND
M  V30 1 1 1 2
M  V30 2 1 1 3
M  V30 3 1 1 4
M  V30 4 1 5 6
M  V30 5 1 5 7
M  V30 6 1 5 8
M  V30 7 1 9 10
M  V30 8 1 9 11
M  V30 9 1 9 12
M  V30 10 1 13 14
M  V30 11 1 13 15
M  V30 12 1 13 16
M  V30 13 1 17 18
M  V30 14 1 17 19
M  V30 15 1 17 20
M  V30 16 1 21 22
M  V30 17 1 21 23
M  V30 18 1 21 24
M  V30 19 1 25 26
M  V30 20 1 26 27
M  V30 21 1 28 29
M  V30 22 1 29 30
M  V30 23 1 31 32
M  V30 24 1 32 33
M  V30 25 1 34 35
M  V30 26 1 35 36
M  V30 27 1 37 38
M  V30 28 1 38 39
M  V30 29 1 40 41
M  V30 30 1 41 42
M  V30 31 1 43 44
M  V30 32 1 44 45
M  V30 33 1 46 47
M  V30 34 1 47 48
M  V30 35 1 49 50
M  V30 36 1 50 51
M  V30 37 1 2 25
M  V30 38 1 6 27
M  V30 39 1 4 28
M  V30 40 1 10 30
M  V30 41 1 12 31
M  V30 42 1 14 33
M  V30 43 1 7 34
M  V30 44 1 16 36
M  V30 45 1 3 37
M  V30 46 1 18 39
M  V30 47 1 11 40
M  V30 48 1 20 42
M  V30 49 1 8 43
M  V30 50 1 22 45
M  V30 51 1 15 46
M  V30 52 1 23 48
M  V30 53 1 19 49
M  V30 54 1 24 51
M  V30 END BOND
M  V30 END CTAB
M  END

$$$$
