
     RDKit          3D

  0  0  0  0  0  0  0  0  0  0999 V3000
M  V30 BEGIN CTAB
M  V30 COUNTS 34 36 0 0 0
M  V30 BEGIN ATOM
M  V30 1 Ag 3.5727 -0.1777 3.9906 0
M  V30 2 Fe 2.3961 -1.1045 3.9094 0
M  V30 3 Fe 3.5728 -0.0470 2.4963 0
M  V30 4 Fe 2.3961 0.7491 4.0716 0
M  V30 5 Ag -3.5728 -0.1778 3.9904 0
M  V30 6 Fe -2.3962 -1.1046 3.9093 0
M  V30 7 Fe -2.3962 0.7491 4.0715 0
M  V30 8 Fe -3.5728 -0.0470 2.4961 0
M  V30 9 Ag 3.5728 -0.1777 -3.9904 0
M  V30 10 Fe 2.3962 -1.1045 -3.9093 0
M  V30 11 Fe 2.3962 0.7491 -4.0715 0
M  V30 12 Fe 3.5728 -0.0470 -2.4961 0
M  V30 13 Ag -3.5727 -0.1776 -3.9906 0
M  V30 14 Fe -2.3961 -1.1045 -3.9094 0
M  V30 15 Fe -3.5728 -0.0469 -2.4963 0
M  V30 16 Fe -2.3961 0.7492 -4.0716 0
M  V30 17 Pb 1.4898 -1.5256 3.8726 0
M  V30 18 Ba -0.0000 -1.6991 3.8574 0
M  V30 19 Pb -1.4899 -1.5256 3.8725 0
M  V30 20 Pb 1.4898 1.1701 4.1085 0
M  V30 21 Ba -0.0001 1.3436 4.1236 0
M  V30 22 Pb -1.4899 1.1701 4.1084 0
M  V30 23 Pb 1.4899 -1.5256 -3.8725 0
M  V30 24 Ba 0.0000 -1.6990 -3.8574 0
M  V30 25 Pb -1.4898 -1.5255 -3.8726 0
M  V30 26 Pb 1.4899 1.1701 -4.1084 0
M  V30 27 Ba 0.0001 1.3437 -4.1236 0
M  V30 28 Pb -1.4898 1.1702 -4.1084 0
M  V30 29 Pb 3.5728 0.0402 1.5001 0
M  V30 30 Ba 3.5728 0.0402 0.0001 0
M  V30 31 Pb 3.5728 0.0402 -1.4999 0
M  V30 32 Pb -3.5728 0.0402 1.4999 0
M  V30 33 Ba -3.5728 0.0402 -0.0001 0
M  V30 34 Pb -3.5728 0.0402 -1.5001 0
M  V30 END ATOM
M  V30 BEGIN BOND
M  V30 1 1 1 2
M  V30 2 1 1 3
M  V30 3 1 1 4
M  V30 4 1 5 6
M  V30 5 1 5 7
M  V30 6 1 5 8
M  V30 7 1 9 10
M  V30 8 1 9 11
M  V30 9 1 9 12
M  V30 10 1 13 14
M  V30 11 1 13 15
M  V30 12 1 13 16
M  V30 13 1 17 18
M  V30 14 1 18 19
M  V30 15 1 20 21
M  V30 16 1 21 22
M  V30 17 1 23 24
M  V30 18 1 24 25
M  V30 19 1 26 27
M  V30 20 1 27 28
M  V30 21 1 29 30
M  V30 22 1 30 31
M  V30 23 1 32 33
M  V30 24 1 33 34
M  V30 25 1 2 17
M  V30 26 1 6 19
M  V30 27 1 4 20
M  V30 28 1 7 22
M  V30 29 1 10 23
M  V30 30 1 14 25
M  V30 31 1 11 26
M  V30 32 1 16 28
M  V30 33 1 3 29
M  V30 34 1 12 31
M  V30 35 1 8 32
M  V30 36 1 15 34
M  V30 END BOND
M  V30 END CTAB
M  END

$$$$
