
     RDKit          3D

  0  0  0  0  0  0  0  0  0  0999 V3000
M  V30 BEGIN CTAB
M  V30 COUNTS 51 54 0 0 0
M  V30 BEGIN ATOM
M  V30 1 Ag -1.8291 -1.1915 -1.8218 0
M  V30 2 Fe -0.5730 -0.3873 -1.6619 0
M  V30 3 Fe -3.0538 -0.4750 -1.3371 0
M  V30 4 Fe -1.6948 -2.6000 -1.3254 0
M  V30 5 Ag -1.8051 -1.1546 1.8126 0
M  V30 6 Fe -0.5514 -0.3539 1.6198 0
M  V30 7 Fe -1.6774 -2.5726 1.3422 0
M  V30 8 Fe -3.0364 -0.4475 1.3307 0
M  V30 9 Ag 1.8102 -1.3318 -2.0184 0
M  V30 10 Fe 1.5818 -2.6979 -1.4414 0
M  V30 11 Fe 1.3705 -1.1934 -3.4460 0
M  V30 12 Fe 3.1609 -0.7459 -1.7319 0
M  V30 13 Ag 1.8364 -1.2918 1.9635 0
M  V30 14 Fe 3.1832 -0.7120 1.6474 0
M  V30 15 Fe 1.4161 -1.1254 3.3939 0
M  V30 16 Fe 1.6004 -2.6690 1.4165 0
M  V30 17 Ag -0.4288 2.1693 -2.0377 0
M  V30 18 Fe -1.7676 2.5395 -1.4702 0
M  V30 19 Fe 0.6682 3.1521 -1.7533 0
M  V30 20 Fe -0.4805 1.7011 -3.4619 0
M  V30 21 Ag -0.4027 2.2095 1.9444 0
M  V30 22 Fe -1.7491 2.5689 1.3880 0
M  V30 23 Fe -0.4350 1.7692 3.3781 0
M  V30 24 Fe 0.6903 3.1862 1.6259 0
M  V30 25 Pb 0.2620 0.1474 -1.5319 0
M  V30 26 Ba 0.2858 0.1716 -0.0322 0
M  V30 27 Pb 0.2818 0.1779 1.4680 0
M  V30 28 Pb -1.5775 -3.5319 -0.9839 0
M  V30 29 Ba -0.0794 -3.5879 -1.0209 0
M  V30 30 Pb 1.4192 -3.6125 -1.0698 0
M  V30 31 Pb 4.0634 -0.3546 -1.5519 0
M  V30 32 Ba 4.0658 -0.3428 -0.0520 0
M  V30 33 Pb 4.0832 -0.3244 1.4477 0
M  V30 34 Pb -1.5647 -3.5111 1.0176 0
M  V30 35 Ba -0.0662 -3.5667 1.0358 0
M  V30 36 Pb 1.4330 -3.5906 1.0651 0
M  V30 37 Pb -3.8522 0.0250 -1.0035 0
M  V30 38 Ba -3.2744 1.4082 -1.0484 0
M  V30 39 Pb -2.6678 2.7785 -1.1049 0
M  V30 40 Pb 1.0887 -1.1209 -4.4029 0
M  V30 41 Ba 0.2841 0.1458 -4.3881 0
M  V30 42 Pb -0.5280 1.4074 -4.4168 0
M  V30 43 Pb -3.8393 0.0460 0.9982 0
M  V30 44 Ba -3.2613 1.4297 1.0085 0
M  V30 45 Pb -2.6542 2.8008 1.0303 0
M  V30 46 Pb 1.1472 -1.0340 4.3529 0
M  V30 47 Ba 0.3422 0.2322 4.3241 0
M  V30 48 Pb -0.4696 1.4942 4.3391 0
M  V30 49 Pb 1.4011 3.8086 -1.5749 0
M  V30 50 Ba 1.4048 3.8183 -0.0750 0
M  V30 51 Pb 1.4207 3.8389 1.4247 0
M  V30 END ATOM
M  V30 BEGIN BOND
M  V30 1 1 1 2
M  V30 2 1 1 3
M  V30 3 1 1 4
M  V30 4 1 5 6
M  V30 5 1 5 7
M  V30 6 1 5 8
M  V30 7 1 9 10
M  V30 8 1 9 11
M  V30 9 1 9 12
M  V30 10 1 13 14
M  V30 11 1 13 15
M  V30 12 1 13 16
M  V30 13 1 17 18
M  V30 14 1 17 19
M  V30 15 1 17 20
M  V30 16 1 21 22
M  V30 17 1 21 23
M  V30 18 1 21 24
M  V30 19 1 25 26
M  V30 20 1 26 27
M  V30 21 1 28 29
M  V30 22 1 29 30
M  V30 23 1 31 32
M  V30 24 1 32 33
M  V30 25 1 34 35
M  V30 26 1 35 36
M  V30 27 1 37 38
M  V30 28 1 38 39
M  V30 29 1 40 41
M  V30 30 1 41 42
M  V30 31 1 43 44
M  V30 32 1 44 45
M  V30 33 1 46 47
M  V30 34 1 47 48
M  V30 35 1 49 50
M  V30 36 1 50 51
M  V30 37 1 2 25
M  V30 38 1 6 27
M  V30 39 1 4 28
M  V30 40 1 10 30
M  V30 41 1 12 31
M  V30 42 1 14 33
M  V30 43 1 7 34
M  V30 44 1 16 36
M  V30 45 1 3 37
M  V30 46 1 18 39
M  V30 47 1 11 40
M  V30 48 1 20 42
M  V30 49 1 8 43
M  V30 50 1 22 45
M  V30 51 1 15 46
M  V30 52 1 23 48
M  V30 53 1 19 49
M  V30 54 1 24 51
M  V30 END BOND
M  V30 END CTAB
M  END

$$$$
