
     RDKit          3D

  0  0  0  0  0  0  0  0  0  0999 V3000
M  V30 BEGIN CTAB
M  V30 COUNTS 34 36 0 0 0
M  V30 BEGIN ATOM
M  V30 1 Ag -0.0648 -0.0374 4.5003 0
M  V30 2 Fe -1.2496 -0.7215 3.8852 0
M  V30 3 Fe 1.1287 -0.7215 3.9024 0
M  V30 4 Fe -0.0605 1.3382 3.9024 0
M  V30 5 Ag -3.6090 -2.0837 -1.3911 0
M  V30 6 Fe -3.5233 -2.0342 0.1056 0
M  V30 7 Fe -3.5093 -0.6529 -1.8305 0
M  V30 8 Fe -2.3201 -2.7127 -1.8305 0
M  V30 9 Ag 3.5642 -2.0838 -1.3392 0
M  V30 10 Fe 3.4569 -2.0343 0.1561 0
M  V30 11 Fe 2.2818 -2.7127 -1.7972 0
M  V30 12 Fe 3.4709 -0.6530 -1.7800 0
M  V30 13 Ag -0.0225 4.1286 -1.3392 0
M  V30 14 Fe -0.0333 4.0109 0.1561 0
M  V30 15 Fe 1.1699 3.3324 -1.7800 0
M  V30 16 Fe -1.2084 3.3324 -1.7972 0
M  V30 17 Pb -2.0704 -1.1953 3.5660 0
M  V30 18 Ba -2.7585 -1.5926 2.2938 0
M  V30 19 Pb -3.5508 -2.0501 1.1051 0
M  V30 20 Pb 1.9540 -1.1954 3.5952 0
M  V30 21 Ba 2.6604 -1.5927 2.3330 0
M  V30 22 Pb 3.4699 -2.0502 1.1559 0
M  V30 23 Pb -0.0583 2.2899 3.5952 0
M  V30 24 Ba -0.0491 3.1003 2.3330 0
M  V30 25 Pb -0.0406 4.0301 1.1559 0
M  V30 26 Pb -1.5148 -3.1981 -2.1710 0
M  V30 27 Ba -0.0170 -3.1385 -2.1176 0
M  V30 28 Pb 1.4815 -3.1981 -2.1493 0
M  V30 29 Pb -3.5271 0.2872 -2.1710 0
M  V30 30 Ba -2.7265 1.5545 -2.1176 0
M  V30 31 Pb -2.0289 2.8821 -2.1493 0
M  V30 32 Pb 3.4936 0.2870 -2.1202 0
M  V30 33 Ba 2.6924 1.5545 -2.0784 0
M  V30 34 Pb 1.9954 2.8820 -2.1202 0
M  V30 END ATOM
M  V30 BEGIN BOND
M  V30 1 1 1 2
M  V30 2 1 1 3
M  V30 3 1 1 4
M  V30 4 1 5 6
M  V30 5 1 5 7
M  V30 6 1 5 8
M  V30 7 1 9 10
M  V30 8 1 9 11
M  V30 9 1 9 12
M  V30 10 1 13 14
M  V30 11 1 13 15
M  V30 12 1 13 16
M  V30 13 1 17 18
M  V30 14 1 18 19
M  V30 15 1 20 21
M  V30 16 1 21 22
M  V30 17 1 23 24
M  V30 18 1 24 25
M  V30 19 1 26 27
M  V30 20 1 27 28
M  V30 21 1 29 30
M  V30 22 1 30 31
M  V30 23 1 32 33
M  V30 24 1 33 34
M  V30 25 1 2 17
M  V30 26 1 6 19
M  V30 27 1 3 20
M  V30 28 1 10 22
M  V30 29 1 4 23
M  V30 30 1 14 25
M  V30 31 1 8 26
M  V30 32 1 11 28
M  V30 33 1 7 29
M  V30 34 1 16 31
M  V30 35 1 12 32
M  V30 36 1 15 34
M  V30 END BOND
M  V30 END CTAB
M  END

$$$$
