
     RDKit          3D

  0  0  0  0  0  0  0  0  0  0999 V3000
M  V30 BEGIN CTAB
M  V30 COUNTS 168 180 0 0 0
M  V30 BEGIN ATOM
M  V30 1 C -1.0900 5.3245 -0.1811 0
M  V30 2 C -0.3371 5.2840 0.9948 0
M  V30 3 C 1.0048 4.9695 0.9151 0
M  V30 4 C 1.5799 4.7007 -0.3224 0
M  V30 5 C 0.8186 4.7450 -1.4822 0
M  V30 6 C -0.5221 5.0603 -1.3918 0
M  V30 7 C -1.3130 5.1041 -2.6167 0
M  V30 8 C 2.9959 4.3659 -0.4338 0
M  V30 9 C -0.9347 5.5648 2.2951 0
M  V30 10 H -2.1449 5.5748 -0.0904 0
M  V30 11 H 1.6247 4.9276 1.8069 0
M  V30 12 H 1.2712 4.5343 -2.4482 0
M  V30 13 H -2.3568 5.3396 -2.6360 0
M  V30 14 H 3.5969 4.3299 0.4723 0
M  V30 15 H -2.0092 5.8113 2.3112 0
M  V30 16 C 0.8367 -5.3226 -0.5404 0
M  V30 17 C 0.9927 -5.2041 0.8426 0
M  V30 18 C -0.1051 -4.8687 1.6097 0
M  V30 19 C -1.3365 -4.6563 0.9992 0
M  V30 20 C -1.4758 -4.7778 -0.3765 0
M  V30 21 C -0.3722 -5.1135 -1.1344 0
M  V30 22 C -0.5295 -5.2386 -2.5792 0
M  V30 23 C -2.5122 -4.3009 1.7873 0
M  V30 24 C 2.2815 -5.4257 1.4883 0
M  V30 25 H 1.7174 -5.5879 -1.1215 0
M  V30 26 H -0.0249 -4.7668 2.6889 0
M  V30 27 H -2.4400 -4.6111 -0.8508 0
M  V30 28 H 0.2730 -5.4948 -3.2393 0
M  V30 29 H -2.4082 -4.2044 2.8659 0
M  V30 30 H 3.1303 -5.6915 0.8369 0
M  V30 31 C -4.9999 0.7692 0.4686 0
M  V30 32 C -4.6717 0.0817 1.6393 0
M  V30 33 C -4.2043 0.7982 2.7229 0
M  V30 34 C -4.0692 2.1795 2.6324 0
M  V30 35 C -4.3996 2.8486 1.4620 0
M  V30 36 C -4.8659 2.1231 0.3844 0
M  V30 37 C -5.2102 2.8361 -0.8407 0
M  V30 38 C -3.5775 2.9600 3.7631 0
M  V30 39 C -4.8113 -1.3665 1.7401 0
M  V30 40 H -5.3658 0.1809 -0.3703 0
M  V30 41 H -3.9381 0.3003 3.6516 0
M  V30 42 H -4.2928 3.9287 1.3944 0
M  V30 43 H -5.5781 2.3513 -1.7211 0
M  V30 44 H -3.3173 2.4402 4.6827 0
M  V30 45 H -5.1881 -1.8977 0.8504 0
M  V30 46 C 5.0085 -1.0523 -0.3480 0
M  V30 47 C 4.7652 -2.4091 -0.5735 0
M  V30 48 C 4.2840 -2.8029 -1.8062 0
M  V30 49 C 4.0516 -1.8516 -2.7939 0
M  V30 50 C 4.2984 -0.5068 -2.5546 0
M  V30 51 C 4.7793 -0.1236 -1.3190 0
M  V30 52 C 5.0352 1.2922 -1.0781 0
M  V30 53 C 3.5433 -2.2416 -4.1050 0
M  V30 54 C 5.0070 -3.4110 0.4583 0
M  V30 55 H 5.3874 -0.7689 0.6317 0
M  V30 56 H 4.0820 -3.8490 -2.0211 0
M  V30 57 H 4.1156 0.2345 -3.3289 0
M  V30 58 H 5.4077 1.6741 -0.1502 0
M  V30 59 H 3.3483 -3.2944 -4.2976 0
M  V30 60 H 5.3912 -3.0514 1.4271 0
M  V30 61 N 2.5351 -5.1235 1.7269 0
M  V30 62 C 3.9417 -5.3394 2.0584 0
M  V30 63 C 3.9511 -6.1421 3.3411 0
M  V30 64 C 5.2818 -6.1288 4.0329 0
M  V30 65 C 6.2792 -5.4917 3.0702 0
M  V30 66 C 5.8591 -4.0273 2.9982 0
M  V30 67 C 4.5655 -3.9920 2.2115 0
M  V30 68 N 4.8044 -3.4475 0.8743 0
M  V30 69 H 4.3626 -5.9233 1.2038 0
M  V30 70 H 3.2114 -5.6670 4.0202 0
M  V30 71 H 3.7010 -7.1913 3.1060 0
M  V30 72 H 5.2695 -5.4582 4.9274 0
M  V30 73 H 5.5982 -7.1299 4.3563 0
M  V30 74 H 7.2734 -5.6243 3.5255 0
M  V30 75 H 6.2257 -5.9827 2.0898 0
M  V30 76 H 5.5940 -3.6781 4.0257 0
M  V30 77 H 6.6421 -3.3794 2.5879 0
M  V30 78 H 3.8188 -3.2941 2.6745 0
M  V30 79 N 0.9705 -5.2579 -2.6762 0
M  V30 80 C 1.3824 -5.0035 -4.0548 0
M  V30 81 C 0.8729 -6.1743 -4.8668 0
M  V30 82 C 1.5221 -6.2818 -6.2146 0
M  V30 83 C 2.3302 -5.0048 -6.4239 0
M  V30 84 C 3.4781 -5.1107 -5.4252 0
M  V30 85 C 2.8716 -4.9017 -4.0534 0
M  V30 86 N 3.2361 -3.5814 -3.5379 0
M  V30 87 H 0.8776 -4.0499 -4.3451 0
M  V30 88 H 1.1249 -7.0928 -4.2951 0
M  V30 89 H -0.2135 -6.0539 -5.0217 0
M  V30 90 H 2.2723 -7.1102 -6.2407 0
M  V30 91 H 0.7943 -6.4495 -7.0202 0
M  V30 92 H 2.6761 -5.0279 -7.4694 0
M  V30 93 H 1.7024 -4.1242 -6.2356 0
M  V30 94 H 3.8604 -6.1604 -5.4265 0
M  V30 95 H 4.3034 -4.4260 -5.6511 0
M  V30 96 H 3.2866 -5.6254 -3.3031 0
M  V30 97 N -2.7720 -3.8409 1.0962 0
M  V30 98 C -3.9796 -3.7569 1.9144 0
M  V30 99 C -4.5666 -5.1513 1.9389 0
M  V30 100 C -5.9935 -5.1804 2.4002 0
M  V30 101 C -6.3184 -3.7887 2.9340 0
M  V30 102 C -6.3234 -2.8962 1.6973 0
M  V30 103 C -4.8790 -2.7592 1.2634 0
M  V30 104 N -4.3816 -1.4211 1.5855 0
M  V30 105 H -3.6314 -3.4385 2.9273 0
M  V30 106 H -4.5408 -5.5267 0.8937 0
M  V30 107 H -3.9734 -5.7750 2.6301 0
M  V30 108 H -6.6955 -5.3365 1.5442 0
M  V30 109 H -6.1788 -5.9651 3.1463 0
M  V30 110 H -7.3115 -3.8642 3.4048 0
M  V30 111 H -5.5593 -3.4758 3.6628 0
M  V30 112 H -6.8357 -3.4375 0.8651 0
M  V30 113 H -6.8255 -1.9369 1.8665 0
M  V30 114 H -4.7720 -2.8428 0.1496 0
M  V30 115 N -2.5386 5.1465 -1.7472 0
M  V30 116 C -3.7227 4.8262 -2.5411 0
M  V30 117 C -3.8614 5.9412 -3.5547 0
M  V30 118 C -5.2170 5.9885 -4.1947 0
M  V30 119 C -5.9519 4.7183 -3.7779 0
M  V30 120 C -6.2149 4.9004 -2.2867 0
M  V30 121 C -4.8754 4.7539 -1.5956 0
M  V30 122 N -4.8083 3.4708 -0.8950 0
M  V30 123 H -3.4961 3.8486 -3.0325 0
M  V30 124 H -3.7137 6.8940 -3.0030 0
M  V30 125 H -3.1138 5.7913 -4.3531 0
M  V30 126 H -5.8312 6.8290 -3.7868 0
M  V30 127 H -5.1635 6.0982 -5.2865 0
M  V30 128 H -6.8801 4.6917 -4.3707 0
M  V30 129 H -5.3295 3.8369 -3.9802 0
M  V30 130 H -6.5321 5.9558 -2.1036 0
M  V30 131 H -6.9848 4.2208 -1.9040 0
M  V30 132 H -4.7379 5.5250 -0.7922 0
M  V30 133 N -0.9758 5.2814 2.6558 0
M  V30 134 C -1.8625 5.5415 3.7876 0
M  V30 135 C -1.0770 6.4128 4.7433 0
M  V30 136 C -1.6731 6.4623 6.1188 0
M  V30 137 C -3.0414 5.7927 6.0366 0
M  V30 138 C -2.7320 4.3188 5.7952 0
M  V30 139 C -2.2235 4.2165 4.3724 0
M  V30 140 N -3.2412 3.6046 3.5171 0
M  V30 141 H -2.7395 6.0859 3.3597 0
M  V30 142 H -0.0655 5.9616 4.8285 0
M  V30 143 H -1.0517 7.4428 4.3468 0
M  V30 144 H -1.0864 5.8412 6.8399 0
M  V30 145 H -1.7344 7.4853 6.5145 0
M  V30 146 H -3.5285 5.9686 7.0088 0
M  V30 147 H -3.6277 6.2284 5.2172 0
M  V30 148 H -1.8716 4.0212 6.4426 0
M  V30 149 H -3.5854 3.6645 6.0063 0
M  V30 150 H -1.3384 3.5308 4.2979 0
M  V30 151 N 2.7248 3.8541 -1.2495 0
M  V30 152 C 4.1853 3.8280 -1.2850 0
M  V30 153 C 4.6161 5.1866 -1.7934 0
M  V30 154 C 6.0420 5.2153 -2.2578 0
M  V30 155 C 6.6765 3.8946 -1.8328 0
M  V30 156 C 5.9991 2.8456 -2.7085 0
M  V30 157 C 4.5796 2.7144 -2.1974 0
M  V30 158 N 4.4208 1.4541 -1.4707 0
M  V30 159 H 4.5058 3.6632 -0.2274 0
M  V30 160 H 3.9706 5.4198 -2.6668 0
M  V30 161 H 4.5099 5.9220 -0.9770 0
M  V30 162 H 6.1070 5.2252 -3.3739 0
M  V30 163 H 6.5930 6.0839 -1.8721 0
M  V30 164 H 7.7536 3.9894 -2.0434 0
M  V30 165 H 6.4978 3.7150 -0.7646 0
M  V30 166 H 5.9074 3.2483 -3.7465 0
M  V30 167 H 6.5467 1.8967 -2.7368 0
M  V30 168 H 3.8408 2.6531 -3.0396 0
M  V30 END ATOM
M  V30 BEGIN BOND
M  V30 1 2 1 2
M  V30 2 1 2 3
M  V30 3 2 3 4
M  V30 4 1 4 5
M  V30 5 2 5 6
M  V30 6 1 6 7
M  V30 7 1 4 8
M  V30 8 1 2 9
M  V30 9 1 6 1
M  V30 10 1 1 10
M  V30 11 1 3 11
M  V30 12 1 5 12
M  V30 13 1 7 13
M  V30 14 1 8 14
M  V30 15 1 9 15
M  V30 16 2 16 17
M  V30 17 1 17 18
M  V30 18 2 18 19
M  V30 19 1 19 20
M  V30 20 2 20 21
M  V30 21 1 21 22
M  V30 22 1 19 23
M  V30 23 1 17 24
M  V30 24 1 21 16
M  V30 25 1 16 25
M  V30 26 1 18 26
M  V30 27 1 20 27
M  V30 28 1 22 28
M  V30 29 1 23 29
M  V30 30 1 24 30
M  V30 31 2 31 32
M  V30 32 1 32 33
M  V30 33 2 33 34
M  V30 34 1 34 35
M  V30 35 2 35 36
M  V30 36 1 36 37
M  V30 37 1 34 38
M  V30 38 1 32 39
M  V30 39 1 36 31
M  V30 40 1 31 40
M  V30 41 1 33 41
M  V30 42 1 35 42
M  V30 43 1 37 43
M  V30 44 1 38 44
M  V30 45 1 39 45
M  V30 46 2 46 47
M  V30 47 1 47 48
M  V30 48 2 48 49
M  V30 49 1 49 50
M  V30 50 2 50 51
M  V30 51 1 51 52
M  V30 52 1 49 53
M  V30 53 1 47 54
M  V30 54 1 51 46
M  V30 55 1 46 55
M  V30 56 1 48 56
M  V30 57 1 50 57
M  V30 58 1 52 58
M  V30 59 1 53 59
M  V30 60 1 54 60
M  V30 61 1 61 62
M  V30 62 1 62 63
M  V30 63 1 63 64
M  V30 64 1 64 65
M  V30 65 1 65 66
M  V30 66 1 66 67
M  V30 67 1 67 68
M  V30 68 1 67 62
M  V30 69 1 62 69
M  V30 70 1 63 70
M  V30 71 1 63 71
M  V30 72 1 64 72
M  V30 73 1 64 73
M  V30 74 1 65 74
M  V30 75 1 65 75
M  V30 76 1 66 76
M  V30 77 1 66 77
M  V30 78 1 67 78
M  V30 79 1 79 80
M  V30 80 1 80 81
M  V30 81 1 81 82
M  V30 82 1 82 83
M  V30 83 1 83 84
M  V30 84 1 84 85
M  V30 85 1 85 86
M  V30 86 1 85 80
M  V30 87 1 80 87
M  V30 88 1 81 88
M  V30 89 1 81 89
M  V30 90 1 82 90
M  V30 91 1 82 91
M  V30 92 1 83 92
M  V30 93 1 83 93
M  V30 94 1 84 94
M  V30 95 1 84 95
M  V30 96 1 85 96
M  V30 97 1 97 98
M  V30 98 1 98 99
M  V30 99 1 99 100
M  V30 100 1 100 101
M  V30 101 1 101 102
M  V30 102 1 102 103
M  V30 103 1 103 104
M  V30 104 1 103 98
M  V30 105 1 98 105
M  V30 106 1 99 106
M  V30 107 1 99 107
M  V30 108 1 100 108
M  V30 109 1 100 109
M  V30 110 1 101 110
M  V30 111 1 101 111
M  V30 112 1 102 112
M  V30 113 1 102 113
M  V30 114 1 103 114
M  V30 115 1 115 116
M  V30 116 1 116 117
M  V30 117 1 117 118
M  V30 118 1 118 119
M  V30 119 1 119 120
M  V30 120 1 120 121
M  V30 121 1 121 122
M  V30 122 1 121 116
M  V30 123 1 116 123
M  V30 124 1 117 124
M  V30 125 1 117 125
M  V30 126 1 118 126
M  V30 127 1 118 127
M  V30 128 1 119 128
M  V30 129 1 119 129
M  V30 130 1 120 130
M  V30 131 1 120 131
M  V30 132 1 121 132
M  V30 133 1 133 134
M  V30 134 1 134 135
M  V30 135 1 135 136
M  V30 136 1 136 137
M  V30 137 1 137 138
M  V30 138 1 138 139
M  V30 139 1 139 140
M  V30 140 1 139 134
M  V30 141 1 134 141
M  V30 142 1 135 142
M  V30 143 1 135 143
M  V30 144 1 136 144
M  V30 145 1 136 145
M  V30 146 1 137 146
M  V30 147 1 137 147
M  V30 148 1 138 148
M  V30 149 1 138 149
M  V30 150 1 139 150
M  V30 151 1 151 152
M  V30 152 1 152 153
M  V30 153 1 153 154
M  V30 154 1 154 155
M  V30 155 1 155 156
M  V30 156 1 156 157
M  V30 157 1 157 158
M  V30 158 1 157 152
M  V30 159 1 152 159
M  V30 160 1 153 160
M  V30 161 1 153 161
M  V30 162 1 154 162
M  V30 163 1 154 163
M  V30 164 1 155 164
M  V30 165 1 155 165
M  V30 166 1 156 166
M  V30 167 1 156 167
M  V30 168 1 157 168
M  V30 169 2 9 133
M  V30 170 2 8 151
M  V30 171 2 7 115
M  V30 172 2 24 61
M  V30 173 2 22 79
M  V30 174 2 23 97
M  V30 175 2 39 104
M  V30 176 2 37 122
M  V30 177 2 38 140
M  V30 178 2 54 68
M  V30 179 2 53 86
M  V30 180 2 52 158
M  V30 END BOND
M  V30 END CTAB
M  END

$$$$
