
     RDKit          3D

  0  0  0  0  0  0  0  0  0  0999 V3000
M  V30 BEGIN CTAB
M  V30 COUNTS 168 180 0 0 0
M  V30 BEGIN ATOM
M  V30 1 C -0.2678 5.2272 0.7109 0
M  V30 2 C 0.7115 5.2334 -0.2851 0
M  V30 3 C 0.3286 5.0309 -1.5960 0
M  V30 4 C -1.0129 4.8260 -1.9008 0
M  V30 5 C -1.9745 4.8226 -0.8998 0
M  V30 6 C -1.5813 5.0259 0.4075 0
M  V30 7 C -2.6000 5.0203 1.4516 0
M  V30 8 C -1.4437 4.6097 -3.2781 0
M  V30 9 C 2.1196 5.4478 0.0285 0
M  V30 10 H 0.0607 5.3891 1.7354 0
M  V30 11 H 1.0601 5.0286 -2.3998 0
M  V30 12 H -3.0225 4.6621 -1.1414 0
M  V30 13 H -2.3816 5.1699 2.4887 0
M  V30 14 H -0.6939 4.6115 -4.0663 0
M  V30 15 H 2.3795 5.6052 1.0883 0
M  V30 16 C 4.5279 -2.2819 1.2965 0
M  V30 17 C 4.9507 -1.7307 0.0847 0
M  V30 18 C 5.2338 -0.3806 0.0307 0
M  V30 19 C 5.0950 0.4014 1.1725 0
M  V30 20 C 4.6738 -0.1610 2.3696 0
M  V30 21 C 4.3933 -1.5117 2.4130 0
M  V30 22 C 3.9514 -2.0925 3.6761 0
M  V30 23 C 5.3878 1.8307 1.1420 0
M  V30 24 C 5.0981 -2.5457 -1.1158 0
M  V30 25 H 4.3114 -3.3480 1.3118 0
M  V30 26 H 5.5654 0.0862 -0.8932 0
M  V30 27 H 4.5662 0.4531 3.2605 0
M  V30 28 H 3.7136 -3.1291 3.7967 0
M  V30 29 H 5.7183 2.2762 0.2061 0
M  V30 30 H 4.8610 -3.6187 -1.0263 0
M  V30 31 C -0.8395 -3.5544 -3.7708 0
M  V30 32 C -2.1473 -3.0698 -3.6948 0
M  V30 33 C -2.4419 -1.8550 -4.2810 0
M  V30 34 C -1.4417 -1.1403 -4.9314 0
M  V30 35 C -0.1465 -1.6352 -4.9986 0
M  V30 36 C 0.1376 -2.8505 -4.4094 0
M  V30 37 C 1.5019 -3.3613 -4.4859 0
M  V30 38 C -1.7269 0.1458 -5.5590 0
M  V30 39 C -3.2002 -3.8147 -3.0141 0
M  V30 40 H -0.6342 -4.5138 -3.3007 0
M  V30 41 H -3.4472 -1.4437 -4.2437 0
M  V30 42 H 0.6333 -1.0740 -5.5080 0
M  V30 43 H 1.8071 -4.2931 -4.0569 0
M  V30 44 H -2.7404 0.5379 -5.5091 0
M  V30 45 H -2.9197 -4.7797 -2.5605 0
M  V30 46 C -2.6082 -2.9244 3.4804 0
M  V30 47 C -1.9583 -2.0943 4.3967 0
M  V30 48 C -2.4318 -0.8110 4.5842 0
M  V30 49 C -3.5375 -0.3699 3.8650 0
M  V30 50 C -4.1727 -1.2067 2.9579 0
M  V30 51 C -3.6915 -2.4877 2.7778 0
M  V30 52 C -4.3665 -3.3589 1.8221 0
M  V30 53 C -4.0577 0.9816 4.0447 0
M  V30 54 C -0.7986 -2.5513 5.1537 0
M  V30 55 H -2.2149 -3.9306 3.3516 0
M  V30 56 H -1.9540 -0.1344 5.2879 0
M  V30 57 H -5.0369 -0.8588 2.3971 0
M  V30 58 H -4.0591 -4.3645 1.6222 0
M  V30 59 H -3.5633 1.6414 4.7545 0
M  V30 60 H -0.4552 -3.5831 4.9718 0
M  V30 61 N 3.1789 5.0965 0.3286 0
M  V30 62 C 4.4656 5.2755 0.9973 0
M  V30 63 C 4.8678 6.7137 0.7534 0
M  V30 64 C 6.3192 6.9729 1.0289 0
M  V30 65 C 6.8740 5.7256 1.7099 0
M  V30 66 C 6.8654 4.6589 0.6199 0
M  V30 67 C 5.4134 4.2960 0.3887 0
M  V30 68 N 5.1283 2.9766 0.9542 0
M  V30 69 H 4.2682 5.0806 2.0797 0
M  V30 70 H 4.6856 6.9178 -0.3232 0
M  V30 71 H 4.2742 7.3665 1.4170 0
M  V30 72 H 6.9027 7.0723 0.0805 0
M  V30 73 H 6.4785 7.8793 1.6289 0
M  V30 74 H 7.8925 5.9835 2.0410 0
M  V30 75 H 6.2412 5.4463 2.5624 0
M  V30 76 H 7.2147 5.1189 -0.3363 0
M  V30 77 H 7.5015 3.7994 0.8602 0
M  V30 78 H 5.1816 4.1939 -0.7043 0
M  V30 79 N -3.2459 4.5190 2.3024 0
M  V30 80 C -4.4711 4.3979 3.0893 0
M  V30 81 C -4.8639 5.8081 3.4723 0
M  V30 82 C -5.8642 5.8570 4.5888 0
M  V30 83 C -6.3487 4.4285 4.8168 0
M  V30 84 C -5.1412 3.7039 5.4024 0
M  V30 85 C -4.1485 3.5436 4.2700 0
M  V30 86 N -4.1125 2.1497 3.8259 0
M  V30 87 H -5.2207 3.9333 2.4032 0
M  V30 88 H -3.9388 6.3126 3.8239 0
M  V30 89 H -5.3115 6.3039 2.5933 0
M  V30 90 H -5.3851 6.1605 5.5523 0
M  V30 91 H -6.6923 6.5485 4.3821 0
M  V30 92 H -7.1863 4.4980 5.5289 0
M  V30 93 H -6.6741 3.9829 3.8676 0
M  V30 94 H -4.6436 4.3752 6.1438 0
M  V30 95 H -5.4072 2.7602 5.8920 0
M  V30 96 H -3.1004 3.7636 4.6047 0
M  V30 97 N 3.1399 -2.4531 4.4528 0
M  V30 98 C 2.6754 -2.7036 5.8152 0
M  V30 99 C 3.8224 -3.3839 6.5303 0
M  V30 100 C 3.4048 -4.0563 7.8042 0
M  V30 101 C 1.9711 -3.6202 8.0900 0
M  V30 102 C 1.1424 -4.2930 7.0006 0
M  V30 103 C 1.4621 -3.5667 5.7107 0
M  V30 104 N 0.3350 -2.7203 5.3171 0
M  V30 105 H 2.4608 -1.6954 6.2466 0
M  V30 106 H 4.2064 -4.1679 5.8434 0
M  V30 107 H 4.5853 -2.6261 6.7804 0
M  V30 108 H 3.3539 -5.1664 7.6814 0
M  V30 109 H 4.0815 -3.8322 8.6400 0
M  V30 110 H 1.7304 -3.9962 9.0971 0
M  V30 111 H 1.8927 -2.5260 8.0485 0
M  V30 112 H 1.5157 -5.3360 6.8571 0
M  V30 113 H 0.0725 -4.3220 7.2364 0
M  V30 114 H 1.5945 -4.2812 4.8557 0
M  V30 115 N -1.6729 3.9480 -4.2372 0
M  V30 116 C -1.7068 3.7156 -5.6793 0
M  V30 117 C -2.2406 4.9899 -6.2964 0
M  V30 118 C -2.7043 4.8085 -7.7112 0
M  V30 119 C -2.2538 3.4199 -8.1540 0
M  V30 120 C -3.1098 2.4604 -7.3338 0
M  V30 121 C -2.5974 2.5404 -5.9110 0
M  V30 122 N -1.8470 1.3291 -5.5775 0
M  V30 123 H -0.6459 3.5273 -5.9754 0
M  V30 124 H -3.1188 5.2952 -5.6885 0
M  V30 125 H -1.4384 5.7484 -6.2965 0
M  V30 126 H -3.8203 4.7880 -7.7748 0
M  V30 127 H -2.3348 5.5980 -8.3798 0
M  V30 128 H -2.4652 3.3579 -9.2333 0
M  V30 129 H -1.1825 3.2876 -7.9538 0
M  V30 130 H -4.1553 2.8523 -7.2978 0
M  V30 131 H -3.1196 1.4434 -7.7421 0
M  V30 132 H -3.4389 2.5679 -5.1693 0
M  V30 133 N -3.8308 -4.1079 -2.0911 0
M  V30 134 C -4.5890 -5.0734 -1.2987 0
M  V30 135 C -5.4356 -5.8503 -2.2833 0
M  V30 136 C -6.5503 -6.6105 -1.6283 0
M  V30 137 C -6.3142 -6.5403 -0.1228 0
M  V30 138 C -6.5698 -5.0803 0.2368 0
M  V30 139 C -5.4035 -4.2922 -0.3219 0
M  V30 140 N -4.5213 -3.8615 0.7634 0
M  V30 141 H -3.8233 -5.7242 -0.8103 0
M  V30 142 H -5.8912 -5.1052 -2.9698 0
M  V30 143 H -4.7924 -6.5769 -2.8098 0
M  V30 144 H -7.5366 -6.1105 -1.7933 0
M  V30 145 H -6.6232 -7.6454 -1.9895 0
M  V30 146 H -7.0471 -7.2231 0.3354 0
M  V30 147 H -5.2872 -6.8475 0.1142 0
M  V30 148 H -7.4678 -4.7237 -0.3239 0
M  V30 149 H -6.7307 -4.9281 1.3101 0
M  V30 150 H -5.7431 -3.3398 -0.8083 0
M  V30 151 N 4.7131 -3.0341 -2.0898 0
M  V30 152 C 4.6897 -4.1141 -3.0736 0
M  V30 153 C 6.1328 -4.5139 -3.2910 0
M  V30 154 C 6.3361 -5.3294 -4.5332 0
M  V30 155 C 4.9514 -5.6991 -5.0561 0
M  V30 156 C 4.3621 -4.3798 -5.5442 0
M  V30 157 C 4.0462 -3.5685 -4.3050 0
M  V30 158 N 2.6001 -3.5310 -4.0833 0
M  V30 159 H 4.1012 -4.9367 -2.5986 0
M  V30 160 H 6.7109 -3.5723 -3.4054 0
M  V30 161 H 6.4683 -5.1175 -2.4297 0
M  V30 162 H 6.8036 -4.7223 -5.3473 0
M  V30 163 H 6.9637 -6.2139 -4.3582 0
M  V30 164 H 5.1139 -6.4181 -5.8747 0
M  V30 165 H 4.3500 -6.1450 -4.2531 0
M  V30 166 H 5.1570 -3.8077 -6.0816 0
M  V30 167 H 3.5036 -4.5179 -6.2112 0
M  V30 168 H 4.3440 -2.4937 -4.4273 0
M  V30 END ATOM
M  V30 BEGIN BOND
M  V30 1 2 1 2
M  V30 2 1 2 3
M  V30 3 2 3 4
M  V30 4 1 4 5
M  V30 5 2 5 6
M  V30 6 1 6 7
M  V30 7 1 4 8
M  V30 8 1 2 9
M  V30 9 1 6 1
M  V30 10 1 1 10
M  V30 11 1 3 11
M  V30 12 1 5 12
M  V30 13 1 7 13
M  V30 14 1 8 14
M  V30 15 1 9 15
M  V30 16 2 16 17
M  V30 17 1 17 18
M  V30 18 2 18 19
M  V30 19 1 19 20
M  V30 20 2 20 21
M  V30 21 1 21 22
M  V30 22 1 19 23
M  V30 23 1 17 24
M  V30 24 1 21 16
M  V30 25 1 16 25
M  V30 26 1 18 26
M  V30 27 1 20 27
M  V30 28 1 22 28
M  V30 29 1 23 29
M  V30 30 1 24 30
M  V30 31 2 31 32
M  V30 32 1 32 33
M  V30 33 2 33 34
M  V30 34 1 34 35
M  V30 35 2 35 36
M  V30 36 1 36 37
M  V30 37 1 34 38
M  V30 38 1 32 39
M  V30 39 1 36 31
M  V30 40 1 31 40
M  V30 41 1 33 41
M  V30 42 1 35 42
M  V30 43 1 37 43
M  V30 44 1 38 44
M  V30 45 1 39 45
M  V30 46 2 46 47
M  V30 47 1 47 48
M  V30 48 2 48 49
M  V30 49 1 49 50
M  V30 50 2 50 51
M  V30 51 1 51 52
M  V30 52 1 49 53
M  V30 53 1 47 54
M  V30 54 1 51 46
M  V30 55 1 46 55
M  V30 56 1 48 56
M  V30 57 1 50 57
M  V30 58 1 52 58
M  V30 59 1 53 59
M  V30 60 1 54 60
M  V30 61 1 61 62
M  V30 62 1 62 63
M  V30 63 1 63 64
M  V30 64 1 64 65
M  V30 65 1 65 66
M  V30 66 1 66 67
M  V30 67 1 67 68
M  V30 68 1 67 62
M  V30 69 1 62 69
M  V30 70 1 63 70
M  V30 71 1 63 71
M  V30 72 1 64 72
M  V30 73 1 64 73
M  V30 74 1 65 74
M  V30 75 1 65 75
M  V30 76 1 66 76
M  V30 77 1 66 77
M  V30 78 1 67 78
M  V30 79 1 79 80
M  V30 80 1 80 81
M  V30 81 1 81 82
M  V30 82 1 82 83
M  V30 83 1 83 84
M  V30 84 1 84 85
M  V30 85 1 85 86
M  V30 86 1 85 80
M  V30 87 1 80 87
M  V30 88 1 81 88
M  V30 89 1 81 89
M  V30 90 1 82 90
M  V30 91 1 82 91
M  V30 92 1 83 92
M  V30 93 1 83 93
M  V30 94 1 84 94
M  V30 95 1 84 95
M  V30 96 1 85 96
M  V30 97 1 97 98
M  V30 98 1 98 99
M  V30 99 1 99 100
M  V30 100 1 100 101
M  V30 101 1 101 102
M  V30 102 1 102 103
M  V30 103 1 103 104
M  V30 104 1 103 98
M  V30 105 1 98 105
M  V30 106 1 99 106
M  V30 107 1 99 107
M  V30 108 1 100 108
M  V30 109 1 100 109
M  V30 110 1 101 110
M  V30 111 1 101 111
M  V30 112 1 102 112
M  V30 113 1 102 113
M  V30 114 1 103 114
M  V30 115 1 115 116
M  V30 116 1 116 117
M  V30 117 1 117 118
M  V30 118 1 118 119
M  V30 119 1 119 120
M  V30 120 1 120 121
M  V30 121 1 121 122
M  V30 122 1 121 116
M  V30 123 1 116 123
M  V30 124 1 117 124
M  V30 125 1 117 125
M  V30 126 1 118 126
M  V30 127 1 118 127
M  V30 128 1 119 128
M  V30 129 1 119 129
M  V30 130 1 120 130
M  V30 131 1 120 131
M  V30 132 1 121 132
M  V30 133 1 133 134
M  V30 134 1 134 135
M  V30 135 1 135 136
M  V30 136 1 136 137
M  V30 137 1 137 138
M  V30 138 1 138 139
M  V30 139 1 139 140
M  V30 140 1 139 134
M  V30 141 1 134 141
M  V30 142 1 135 142
M  V30 143 1 135 143
M  V30 144 1 136 144
M  V30 145 1 136 145
M  V30 146 1 137 146
M  V30 147 1 137 147
M  V30 148 1 138 148
M  V30 149 1 138 149
M  V30 150 1 139 150
M  V30 151 1 151 152
M  V30 152 1 152 153
M  V30 153 1 153 154
M  V30 154 1 154 155
M  V30 155 1 155 156
M  V30 156 1 156 157
M  V30 157 1 157 158
M  V30 158 1 157 152
M  V30 159 1 152 159
M  V30 160 1 153 160
M  V30 161 1 153 161
M  V30 162 1 154 162
M  V30 163 1 154 163
M  V30 164 1 155 164
M  V30 165 1 155 165
M  V30 166 1 156 166
M  V30 167 1 156 167
M  V30 168 1 157 168
M  V30 169 2 9 61
M  V30 170 2 8 115
M  V30 171 2 7 79
M  V30 172 2 24 151
M  V30 173 2 22 97
M  V30 174 2 23 68
M  V30 175 2 39 133
M  V30 176 2 37 158
M  V30 177 2 38 122
M  V30 178 2 54 104
M  V30 179 2 52 140
M  V30 180 2 53 86
M  V30 END BOND
M  V30 END CTAB
M  END

$$$$
