
     RDKit          3D

  0  0  0  0  0  0  0  0  0  0999 V3000
M  V30 BEGIN CTAB
M  V30 COUNTS 168 180 0 0 0
M  V30 BEGIN ATOM
M  V30 1 C 0.5244 1.4340 -4.9549 0
M  V30 2 C 1.4113 0.3553 -4.9840 0
M  V30 3 C 0.8993 -0.9260 -5.0281 0
M  V30 4 C -0.4778 -1.1204 -5.0427 0
M  V30 5 C -1.3465 -0.0381 -5.0133 0
M  V30 6 C -0.8245 1.2388 -4.9693 0
M  V30 7 C -1.7463 2.3690 -4.9388 0
M  V30 8 C -1.0445 -2.4643 -5.0891 0
M  V30 9 C 2.8562 0.5529 -4.9689 0
M  V30 10 H 0.9539 2.4330 -4.9203 0
M  V30 11 H 1.5560 -1.7917 -5.0518 0
M  V30 12 H -2.4227 -0.1934 -5.0248 0
M  V30 13 H -1.4261 3.3897 -4.9042 0
M  V30 14 H -0.3678 -3.3159 -5.1122 0
M  V30 15 H 3.2203 1.5930 -4.9334 0
M  V30 16 C 4.7200 1.8267 1.0967 0
M  V30 17 C 4.2464 1.7524 2.4087 0
M  V30 18 C 4.1807 0.5179 3.0234 0
M  V30 19 C 4.5830 -0.6206 2.3333 0
M  V30 20 C 5.0514 -0.5306 1.0297 0
M  V30 21 C 5.1132 0.7082 0.4243 0
M  V30 22 C 5.6069 0.7915 -0.9459 0
M  V30 23 C 4.5235 -1.9370 2.9602 0
M  V30 24 C 3.8232 2.9427 3.1373 0
M  V30 25 H 4.7616 2.8113 0.6358 0
M  V30 26 H 3.8182 0.4180 4.0432 0
M  V30 27 H 5.3652 -1.4226 0.4929 0
M  V30 28 H 5.6871 1.7106 -1.4884 0
M  V30 29 H 4.1571 -2.0129 3.9817 0
M  V30 30 H 3.8929 3.9070 2.6073 0
M  V30 31 C -3.9999 3.1259 1.0853 0
M  V30 32 C -3.7471 2.6970 2.3904 0
M  V30 33 C -2.6687 3.2292 3.0685 0
M  V30 34 C -1.8593 4.1746 2.4475 0
M  V30 35 C -2.1234 4.5908 1.1499 0
M  V30 36 C -3.2039 4.0526 0.4807 0
M  V30 37 C -3.4725 4.4971 -0.8825 0
M  V30 38 C -0.7135 4.7524 3.1423 0
M  V30 39 C -4.5922 1.7061 3.0467 0
M  V30 40 H -4.8557 2.6908 0.5735 0
M  V30 41 H -2.4385 2.9216 4.0852 0
M  V30 42 H -1.4887 5.3301 0.6671 0
M  V30 43 H -4.2879 4.1315 -1.4716 0
M  V30 44 H -0.5023 4.4294 4.1594 0
M  V30 45 H -5.4419 1.3084 2.4675 0
M  V30 46 C -0.7642 -5.0713 0.8428 0
M  V30 47 C -0.5675 -4.6943 2.1733 0
M  V30 48 C -1.5921 -4.0548 2.8421 0
M  V30 49 C -2.7918 -3.7987 2.1869 0
M  V30 50 C -2.9722 -4.1795 0.8643 0
M  V30 51 C -1.9418 -4.8183 0.2047 0
M  V30 52 C -2.1419 -5.2142 -1.1850 0
M  V30 53 C -3.8902 -3.1243 2.8711 0
M  V30 54 C 0.6883 -4.9602 2.8656 0
M  V30 55 H 0.0589 -5.5736 0.3391 0
M  V30 56 H -1.4784 -3.7455 3.8778 0
M  V30 57 H -3.9115 -3.9779 0.3548 0
M  V30 58 H -1.3963 -5.7129 -1.7688 0
M  V30 59 H -3.7538 -2.8239 3.9078 0
M  V30 60 H 1.4786 -5.4730 2.2927 0
M  V30 61 N 3.8133 0.6689 -4.4707 0
M  V30 62 C 5.1581 1.2340 -4.3870 0
M  V30 63 C 5.7396 1.1391 -5.7808 0
M  V30 64 C 7.2294 1.3109 -5.8091 0
M  V30 65 C 7.6518 1.7740 -4.4182 0
M  V30 66 C 7.4129 0.5626 -3.5228 0
M  V30 67 C 5.9112 0.4215 -3.3867 0
M  V30 68 N 5.4857 0.8385 -2.0500 0
M  V30 69 H 5.0155 2.2964 -4.0715 0
M  V30 70 H 5.5092 0.1184 -6.1538 0
M  V30 71 H 5.2943 1.9318 -6.4069 0
M  V30 72 H 7.7496 0.3332 -5.9623 0
M  V30 73 H 7.5583 2.0040 -6.5953 0
M  V30 74 H 8.7180 2.0402 -4.4936 0
M  V30 75 H 7.0504 2.6385 -4.1081 0
M  V30 76 H 7.7520 -0.3553 -4.0616 0
M  V30 77 H 7.9377 0.6324 -2.5633 0
M  V30 78 H 5.5875 -0.6497 -3.4678 0
M  V30 79 N -1.4142 -3.4147 -4.6330 0
M  V30 80 C -1.5974 -4.8642 -4.6225 0
M  V30 81 C -1.9946 -5.2463 -6.0317 0
M  V30 82 C -2.5926 -6.6188 -6.1222 0
M  V30 83 C -2.3797 -7.2886 -4.7681 0
M  V30 84 C -3.2929 -6.5241 -3.8154 0
M  V30 85 C -2.6606 -5.1622 -3.6181 0
M  V30 86 N -2.0638 -5.0729 -2.2849 0
M  V30 87 H -0.6012 -5.2882 -4.3459 0
M  V30 88 H -2.7688 -4.5176 -6.3536 0
M  V30 89 H -1.0963 -5.2243 -6.6730 0
M  V30 90 H -3.7018 -6.5723 -6.2542 0
M  V30 91 H -2.1711 -7.2081 -6.9479 0
M  V30 92 H -2.6847 -8.3396 -4.8938 0
M  V30 93 H -1.3251 -7.2168 -4.4718 0
M  V30 94 H -4.2664 -6.3305 -4.3281 0
M  V30 95 H -3.4791 -7.0632 -2.8796 0
M  V30 96 H -3.4268 -4.3429 -3.6431 0
M  V30 97 N 4.0165 -2.8894 3.2497 0
M  V30 98 C 3.7627 -4.0037 4.1601 0
M  V30 99 C 5.1134 -4.4162 4.7037 0
M  V30 100 C 5.0997 -5.7718 5.3453 0
M  V30 101 C 3.6393 -6.1994 5.4542 0
M  V30 102 C 3.2034 -6.4423 4.0130 0
M  V30 103 C 3.1051 -5.0791 3.3607 0
M  V30 104 N 1.7011 -4.7113 3.1728 0
M  V30 105 H 3.1050 -3.5887 4.9624 0
M  V30 106 H 5.8067 -4.4586 3.8368 0
M  V30 107 H 5.4292 -3.6828 5.4660 0
M  V30 108 H 5.5806 -6.5383 4.6887 0
M  V30 109 H 5.6092 -5.7821 6.3184 0
M  V30 110 H 3.6329 -7.1203 6.0587 0
M  V30 111 H 3.0480 -5.4086 5.9340 0
M  V30 112 H 4.0248 -6.9736 3.4734 0
M  V30 113 H 2.2831 -7.0330 3.9403 0
M  V30 114 H 3.5398 -5.0832 2.3263 0
M  V30 115 N -2.3460 3.1508 -4.4287 0
M  V30 116 C -3.5075 4.0336 -4.3486 0
M  V30 117 C -3.6678 4.6407 -5.7253 0
M  V30 118 C -4.5567 5.8487 -5.7351 0
M  V30 119 C -5.2149 5.9298 -4.3612 0
M  V30 120 C -4.0759 6.2877 -3.4121 0
M  V30 121 C -3.2112 5.0498 -3.2963 0
M  V30 122 N -3.4059 4.4205 -1.9895 0
M  V30 123 H -4.3681 3.3702 -4.0881 0
M  V30 124 H -2.6558 4.9621 -6.0520 0
M  V30 125 H -4.1126 3.8862 -6.3973 0
M  V30 126 H -3.9628 6.7911 -5.8309 0
M  V30 127 H -5.2948 5.8217 -6.5483 0
M  V30 128 H -5.9734 6.7255 -4.4302 0
M  V30 129 H -5.6756 4.9669 -4.1046 0
M  V30 130 H -3.4308 7.0588 -3.8990 0
M  V30 131 H -4.4295 6.6700 -2.4477 0
M  V30 132 H -2.1188 5.3037 -3.3307 0
M  V30 133 N -4.8716 0.6902 3.3063 0
M  V30 134 C -5.8696 -0.3325 3.6113 0
M  V30 135 C -6.8789 0.3269 4.5258 0
M  V30 136 C -7.7524 -0.6581 5.2445 0
M  V30 137 C -7.4893 -2.0256 4.6216 0
M  V30 138 C -6.0680 -2.3744 5.0509 0
M  V30 139 C -5.1483 -1.4654 4.2627 0
M  V30 140 N -4.4617 -2.2270 3.2186 0
M  V30 141 H -6.3230 -0.6084 2.6280 0
M  V30 142 H -6.2989 0.8863 5.2903 0
M  V30 143 H -7.5310 0.9821 3.9223 0
M  V30 144 H -7.4525 -0.7624 6.3165 0
M  V30 145 H -8.8152 -0.3828 5.2085 0
M  V30 146 H -8.2400 -2.7082 5.0505 0
M  V30 147 H -7.5860 -1.9692 3.5295 0
M  V30 148 H -5.9333 -2.0817 6.1205 0
M  V30 149 H -5.8382 -3.4399 4.9368 0
M  V30 150 H -4.3247 -1.0537 4.9039 0
M  V30 151 N 3.0879 3.6767 3.4507 0
M  V30 152 C 2.7072 5.0340 3.8352 0
M  V30 153 C 3.7996 5.5298 4.7575 0
M  V30 154 C 3.3969 6.7386 5.5489 0
M  V30 155 C 2.0700 7.2261 4.9752 0
M  V30 156 C 1.0650 6.1476 5.3662 0
M  V30 157 C 1.3776 4.9404 4.5070 0
M  V30 158 N 0.3557 4.7815 3.4715 0
M  V30 159 H 2.6772 5.6160 2.8818 0
M  V30 160 H 4.0078 4.7084 5.4759 0
M  V30 161 H 4.6820 5.7992 4.1513 0
M  V30 162 H 3.1761 6.4744 6.6126 0
M  V30 163 H 4.1661 7.5227 5.5405 0
M  V30 164 H 1.8623 8.1932 5.4599 0
M  V30 165 H 2.1472 7.3395 3.8860 0
M  V30 166 H 1.2705 5.8283 6.4168 0
M  V30 167 H 0.0255 6.4862 5.2889 0
M  V30 168 H 1.3337 3.9885 5.0994 0
M  V30 END ATOM
M  V30 BEGIN BOND
M  V30 1 2 1 2
M  V30 2 1 2 3
M  V30 3 2 3 4
M  V30 4 1 4 5
M  V30 5 2 5 6
M  V30 6 1 6 7
M  V30 7 1 4 8
M  V30 8 1 2 9
M  V30 9 1 6 1
M  V30 10 1 1 10
M  V30 11 1 3 11
M  V30 12 1 5 12
M  V30 13 1 7 13
M  V30 14 1 8 14
M  V30 15 1 9 15
M  V30 16 2 16 17
M  V30 17 1 17 18
M  V30 18 2 18 19
M  V30 19 1 19 20
M  V30 20 2 20 21
M  V30 21 1 21 22
M  V30 22 1 19 23
M  V30 23 1 17 24
M  V30 24 1 21 16
M  V30 25 1 16 25
M  V30 26 1 18 26
M  V30 27 1 20 27
M  V30 28 1 22 28
M  V30 29 1 23 29
M  V30 30 1 24 30
M  V30 31 2 31 32
M  V30 32 1 32 33
M  V30 33 2 33 34
M  V30 34 1 34 35
M  V30 35 2 35 36
M  V30 36 1 36 37
M  V30 37 1 34 38
M  V30 38 1 32 39
M  V30 39 1 36 31
M  V30 40 1 31 40
M  V30 41 1 33 41
M  V30 42 1 35 42
M  V30 43 1 37 43
M  V30 44 1 38 44
M  V30 45 1 39 45
M  V30 46 2 46 47
M  V30 47 1 47 48
M  V30 48 2 48 49
M  V30 49 1 49 50
M  V30 50 2 50 51
M  V30 51 1 51 52
M  V30 52 1 49 53
M  V30 53 1 47 54
M  V30 54 1 51 46
M  V30 55 1 46 55
M  V30 56 1 48 56
M  V30 57 1 50 57
M  V30 58 1 52 58
M  V30 59 1 53 59
M  V30 60 1 54 60
M  V30 61 1 61 62
M  V30 62 1 62 63
M  V30 63 1 63 64
M  V30 64 1 64 65
M  V30 65 1 65 66
M  V30 66 1 66 67
M  V30 67 1 67 68
M  V30 68 1 67 62
M  V30 69 1 62 69
M  V30 70 1 63 70
M  V30 71 1 63 71
M  V30 72 1 64 72
M  V30 73 1 64 73
M  V30 74 1 65 74
M  V30 75 1 65 75
M  V30 76 1 66 76
M  V30 77 1 66 77
M  V30 78 1 67 78
M  V30 79 1 79 80
M  V30 80 1 80 81
M  V30 81 1 81 82
M  V30 82 1 82 83
M  V30 83 1 83 84
M  V30 84 1 84 85
M  V30 85 1 85 86
M  V30 86 1 85 80
M  V30 87 1 80 87
M  V30 88 1 81 88
M  V30 89 1 81 89
M  V30 90 1 82 90
M  V30 91 1 82 91
M  V30 92 1 83 92
M  V30 93 1 83 93
M  V30 94 1 84 94
M  V30 95 1 84 95
M  V30 96 1 85 96
M  V30 97 1 97 98
M  V30 98 1 98 99
M  V30 99 1 99 100
M  V30 100 1 100 101
M  V30 101 1 101 102
M  V30 102 1 102 103
M  V30 103 1 103 104
M  V30 104 1 103 98
M  V30 105 1 98 105
M  V30 106 1 99 106
M  V30 107 1 99 107
M  V30 108 1 100 108
M  V30 109 1 100 109
M  V30 110 1 101 110
M  V30 111 1 101 111
M  V30 112 1 102 112
M  V30 113 1 102 113
M  V30 114 1 103 114
M  V30 115 1 115 116
M  V30 116 1 116 117
M  V30 117 1 117 118
M  V30 118 1 118 119
M  V30 119 1 119 120
M  V30 120 1 120 121
M  V30 121 1 121 122
M  V30 122 1 121 116
M  V30 123 1 116 123
M  V30 124 1 117 124
M  V30 125 1 117 125
M  V30 126 1 118 126
M  V30 127 1 118 127
M  V30 128 1 119 128
M  V30 129 1 119 129
M  V30 130 1 120 130
M  V30 131 1 120 131
M  V30 132 1 121 132
M  V30 133 1 133 134
M  V30 134 1 134 135
M  V30 135 1 135 136
M  V30 136 1 136 137
M  V30 137 1 137 138
M  V30 138 1 138 139
M  V30 139 1 139 140
M  V30 140 1 139 134
M  V30 141 1 134 141
M  V30 142 1 135 142
M  V30 143 1 135 143
M  V30 144 1 136 144
M  V30 145 1 136 145
M  V30 146 1 137 146
M  V30 147 1 137 147
M  V30 148 1 138 148
M  V30 149 1 138 149
M  V30 150 1 139 150
M  V30 151 1 151 152
M  V30 152 1 152 153
M  V30 153 1 153 154
M  V30 154 1 154 155
M  V30 155 1 155 156
M  V30 156 1 156 157
M  V30 157 1 157 158
M  V30 158 1 157 152
M  V30 159 1 152 159
M  V30 160 1 153 160
M  V30 161 1 153 161
M  V30 162 1 154 162
M  V30 163 1 154 163
M  V30 164 1 155 164
M  V30 165 1 155 165
M  V30 166 1 156 166
M  V30 167 1 156 167
M  V30 168 1 157 168
M  V30 169 2 9 61
M  V30 170 2 7 115
M  V30 171 2 8 79
M  V30 172 2 24 151
M  V30 173 2 23 97
M  V30 174 2 22 68
M  V30 175 2 39 133
M  V30 176 2 38 158
M  V30 177 2 37 122
M  V30 178 2 54 104
M  V30 179 2 53 140
M  V30 180 2 52 86
M  V30 END BOND
M  V30 END CTAB
M  END

$$$$
