
     RDKit          3D

  0  0  0  0  0  0  0  0  0  0999 V3000
M  V30 BEGIN CTAB
M  V30 COUNTS 168 180 0 0 0
M  V30 BEGIN ATOM
M  V30 1 C 3.8143 -2.5866 1.2407 0
M  V30 2 C 4.1892 -1.6534 2.2100 0
M  V30 3 C 3.4549 -1.5742 3.3765 0
M  V30 4 C 2.3646 -2.4167 3.5659 0
M  V30 5 C 2.0044 -3.3391 2.5932 0
M  V30 6 C 2.7450 -3.4102 1.4306 0
M  V30 7 C 2.3579 -4.3831 0.4149 0
M  V30 8 C 1.5722 -2.3531 4.7896 0
M  V30 9 C 5.3314 -0.7675 2.0170 0
M  V30 10 H 4.4096 -2.6284 0.3309 0
M  V30 11 H 3.7143 -0.8614 4.1549 0
M  V30 12 H 1.1514 -3.9963 2.7442 0
M  V30 13 H 2.8766 -4.5039 -0.5134 0
M  V30 14 H 1.8504 -1.6318 5.5550 0
M  V30 15 H 5.8886 -0.8656 1.0707 0
M  V30 16 C -2.0522 2.9109 -3.1176 0
M  V30 17 C -2.8723 1.8884 -3.6003 0
M  V30 18 C -3.9219 1.4515 -2.8171 0
M  V30 19 C -4.1437 2.0307 -1.5722 0
M  V30 20 C -3.3199 3.0461 -1.1062 0
M  V30 21 C -2.2734 3.4757 -1.8969 0
M  V30 22 C -1.4139 4.5433 -1.3976 0
M  V30 23 C -5.2460 1.5871 -0.7250 0
M  V30 24 C -2.6446 1.2773 -4.9048 0
M  V30 25 H -1.2325 3.2365 -3.7545 0
M  V30 26 H -4.5826 0.6582 -3.1568 0
M  V30 27 H -3.4960 3.4969 -0.1324 0
M  V30 28 H -0.5821 4.9350 -1.9455 0
M  V30 29 H -5.8944 0.7916 -1.0858 0
M  V30 30 H -1.7951 1.6575 -5.4959 0
M  V30 31 C 2.5265 3.7089 1.3937 0
M  V30 32 C 1.2548 3.9693 1.9093 0
M  V30 33 C 0.9013 3.4115 3.1217 0
M  V30 34 C 1.8082 2.6071 3.8035 0
M  V30 35 C 3.0685 2.3575 3.2781 0
M  V30 36 C 3.4121 2.9199 2.0655 0
M  V30 37 C 4.7390 2.6511 1.5224 0
M  V30 38 C 1.4593 2.0056 5.0865 0
M  V30 39 C 0.2997 4.8120 1.1989 0
M  V30 40 H 2.7797 4.1605 0.4369 0
M  V30 41 H -0.0786 3.5900 3.5566 0
M  V30 42 H 3.7753 1.7281 3.8137 0
M  V30 43 H 5.0855 3.0469 0.5902 0
M  V30 44 H 0.4727 2.1983 5.5025 0
M  V30 45 H 0.6247 5.2362 0.2345 0
M  V30 46 C -3.2937 -2.4712 -2.9158 0
M  V30 47 C -2.1726 -2.4774 -3.7491 0
M  V30 48 C -1.0605 -3.1986 -3.3628 0
M  V30 49 C -1.0741 -3.9004 -2.1622 0
M  V30 50 C -2.1959 -3.8846 -1.3448 0
M  V30 51 C -3.3025 -3.1605 -1.7400 0
M  V30 52 C -4.4760 -3.1506 -0.8735 0
M  V30 53 C 0.0881 -4.6703 -1.7311 0
M  V30 54 C -2.1526 -1.7434 -5.0091 0
M  V30 55 H -4.1565 -1.8951 -3.2436 0
M  V30 56 H -0.1686 -3.2286 -3.9832 0
M  V30 57 H -2.2034 -4.4344 -0.4066 0
M  V30 58 H -5.3742 -2.6161 -1.1041 0
M  V30 59 H 0.9698 -4.6859 -2.3682 0
M  V30 60 H -3.0625 -1.1815 -5.2774 0
M  V30 61 N -2.3590 1.2630 -4.8328 0
M  V30 62 C -1.6273 0.5443 -5.8735 0
M  V30 63 C -1.7086 1.4068 -7.1141 0
M  V30 64 C -1.3534 0.6663 -8.3691 0
M  V30 65 C -0.7817 -0.6830 -7.9446 0
M  V30 66 C -1.9738 -1.4386 -7.3666 0
M  V30 67 C -2.2955 -0.7798 -6.0415 0
M  V30 68 N -1.8779 -1.6428 -4.9359 0
M  V30 69 H -0.5785 0.4619 -5.4970 0
M  V30 70 H -2.7652 1.7380 -7.2037 0
M  V30 71 H -1.0054 2.2511 -7.0073 0
M  V30 72 H -2.2640 0.4221 -8.9699 0
M  V30 73 H -0.6591 1.2291 -9.0078 0
M  V30 74 H -0.3878 -1.1517 -8.8604 0
M  V30 75 H 0.0134 -0.5404 -7.2012 0
M  V30 76 H -2.8645 -1.2559 -8.0156 0
M  V30 77 H -1.7979 -2.5176 -7.2909 0
M  V30 78 H -3.4013 -0.6514 -5.9011 0
M  V30 79 N -5.2418 0.6845 -1.6778 0
M  V30 80 C -6.2667 -0.3548 -1.7441 0
M  V30 81 C -7.5193 0.2542 -1.1527 0
M  V30 82 C -8.5532 -0.7685 -0.7857 0
M  V30 83 C -8.0874 -2.1014 -1.3634 0
M  V30 84 C -6.8601 -2.4689 -0.5358 0
M  V30 85 C -5.7596 -1.5182 -0.9584 0
M  V30 86 N -4.7723 -2.2233 -1.7769 0
M  V30 87 H -6.3918 -0.5805 -2.8312 0
M  V30 88 H -7.2118 0.7746 -0.2208 0
M  V30 89 H -7.9668 0.9384 -1.8947 0
M  V30 90 H -8.5946 -0.9275 0.3202 0
M  V30 91 H -9.5587 -0.4941 -1.1329 0
M  V30 92 H -8.9210 -2.8070 -1.2194 0
M  V30 93 H -7.8456 -1.9888 -2.4283 0
M  V30 94 H -7.0650 -2.2316 0.5364 0
M  V30 95 H -6.5872 -3.5265 -0.6254 0
M  V30 96 H -5.1797 -1.1385 -0.0761 0
M  V30 97 N -1.7704 4.0705 -0.8197 0
M  V30 98 C -1.5672 5.2074 0.0753 0
M  V30 99 C -2.2243 6.3927 -0.5977 0
M  V30 100 C -1.7912 7.7090 -0.0238 0
M  V30 101 C -0.9922 7.4040 1.2395 0
M  V30 102 C 0.2915 6.7548 0.7327 0
M  V30 103 C -0.0932 5.3757 0.2390 0
M  V30 104 N 0.3791 4.3559 1.1763 0
M  V30 105 H -2.0860 4.9339 1.0265 0
M  V30 106 H -1.9115 6.3683 -1.6633 0
M  V30 107 H -3.3182 6.3113 -0.4731 0
M  V30 108 H -1.0750 8.2340 -0.7031 0
M  V30 109 H -2.6373 8.3817 0.1722 0
M  V30 110 H -0.8105 8.3735 1.7299 0
M  V30 111 H -1.5614 6.7313 1.8944 0
M  V30 112 H 0.6423 7.3092 -0.1715 0
M  V30 113 H 1.0899 6.7472 1.4834 0
M  V30 114 H 0.4129 5.1277 -0.7312 0
M  V30 115 N 2.3438 -1.2949 4.8974 0
M  V30 116 C 2.3285 -0.4637 6.0989 0
M  V30 117 C 1.9923 -1.3917 7.2458 0
M  V30 118 C 1.5572 -0.6637 8.4829 0
M  V30 119 C 1.8319 0.8185 8.2483 0
M  V30 120 C 0.8270 1.2289 7.1769 0
M  V30 121 C 1.2963 0.5932 5.8850 0
M  V30 122 N 1.8652 1.6112 5.0009 0
M  V30 123 H 3.3639 -0.0537 6.1904 0
M  V30 124 H 1.1428 -2.0224 6.9074 0
M  V30 125 H 2.8888 -1.9846 7.4982 0
M  V30 126 H 0.4515 -0.7364 8.6309 0
M  V30 127 H 2.0522 -1.0396 9.3887 0
M  V30 128 H 1.6512 1.3208 9.2119 0
M  V30 129 H 2.8681 0.9638 7.9162 0
M  V30 130 H -0.1570 0.7516 7.4050 0
M  V30 131 H 0.6945 2.3148 7.1110 0
M  V30 132 H 0.4412 0.1566 5.3043 0
M  V30 133 N 5.2277 -0.7164 1.7427 0
M  V30 134 C 6.0401 0.3126 1.0978 0
M  V30 135 C 7.4166 -0.2904 0.9208 0
M  V30 136 C 8.4743 0.7334 0.6335 0
M  V30 137 C 7.7575 2.0543 0.3713 0
M  V30 138 C 7.1824 2.4530 1.7265 0
M  V30 139 C 6.0379 1.5003 2.0020 0
M  V30 140 N 4.7580 2.1914 1.8410 0
M  V30 141 H 5.5466 0.5087 0.1147 0
M  V30 142 H 7.6747 -0.7838 1.8820 0
M  V30 143 H 7.3890 -0.9973 0.0733 0
M  V30 144 H 9.1143 0.9211 1.5309 0
M  V30 145 H 9.1267 0.4421 -0.2009 0
M  V30 146 H 8.5279 2.7568 0.0158 0
M  V30 147 H 6.9720 1.9157 -0.3831 0
M  V30 148 H 7.9438 2.2424 2.5164 0
M  V30 149 H 6.8968 3.5101 1.7735 0
M  V30 150 H 6.0401 1.1484 3.0674 0
M  V30 151 N 1.7499 -4.1036 0.8914 0
M  V30 152 C 1.0557 -5.3392 0.5359 0
M  V30 153 C 1.9978 -6.4672 0.8961 0
M  V30 154 C 1.6244 -7.7716 0.2568 0
M  V30 155 C 0.2470 -7.5828 -0.3713 0
M  V30 156 C 0.4856 -6.6281 -1.5365 0
M  V30 157 C 0.7640 -5.2703 -0.9264 0
M  V30 158 N -0.3865 -4.3867 -1.1188 0
M  V30 159 H 0.1338 -5.3548 1.1670 0
M  V30 160 H 3.0010 -6.1787 0.5162 0
M  V30 161 H 1.9815 -6.6086 1.9908 0
M  V30 162 H 2.3038 -8.0165 -0.5967 0
M  V30 163 H 1.6459 -8.6098 0.9666 0
M  V30 164 H -0.0791 -8.5814 -0.7029 0
M  V30 165 H -0.4511 -7.1645 0.3656 0
M  V30 166 H 1.4302 -6.9225 -2.0551 0
M  V30 167 H -0.3375 -6.6256 -2.2602 0
M  V30 168 H 1.6128 -4.7504 -1.4442 0
M  V30 END ATOM
M  V30 BEGIN BOND
M  V30 1 2 1 2
M  V30 2 1 2 3
M  V30 3 2 3 4
M  V30 4 1 4 5
M  V30 5 2 5 6
M  V30 6 1 6 7
M  V30 7 1 4 8
M  V30 8 1 2 9
M  V30 9 1 6 1
M  V30 10 1 1 10
M  V30 11 1 3 11
M  V30 12 1 5 12
M  V30 13 1 7 13
M  V30 14 1 8 14
M  V30 15 1 9 15
M  V30 16 2 16 17
M  V30 17 1 17 18
M  V30 18 2 18 19
M  V30 19 1 19 20
M  V30 20 2 20 21
M  V30 21 1 21 22
M  V30 22 1 19 23
M  V30 23 1 17 24
M  V30 24 1 21 16
M  V30 25 1 16 25
M  V30 26 1 18 26
M  V30 27 1 20 27
M  V30 28 1 22 28
M  V30 29 1 23 29
M  V30 30 1 24 30
M  V30 31 2 31 32
M  V30 32 1 32 33
M  V30 33 2 33 34
M  V30 34 1 34 35
M  V30 35 2 35 36
M  V30 36 1 36 37
M  V30 37 1 34 38
M  V30 38 1 32 39
M  V30 39 1 36 31
M  V30 40 1 31 40
M  V30 41 1 33 41
M  V30 42 1 35 42
M  V30 43 1 37 43
M  V30 44 1 38 44
M  V30 45 1 39 45
M  V30 46 2 46 47
M  V30 47 1 47 48
M  V30 48 2 48 49
M  V30 49 1 49 50
M  V30 50 2 50 51
M  V30 51 1 51 52
M  V30 52 1 49 53
M  V30 53 1 47 54
M  V30 54 1 51 46
M  V30 55 1 46 55
M  V30 56 1 48 56
M  V30 57 1 50 57
M  V30 58 1 52 58
M  V30 59 1 53 59
M  V30 60 1 54 60
M  V30 61 1 61 62
M  V30 62 1 62 63
M  V30 63 1 63 64
M  V30 64 1 64 65
M  V30 65 1 65 66
M  V30 66 1 66 67
M  V30 67 1 67 68
M  V30 68 1 67 62
M  V30 69 1 62 69
M  V30 70 1 63 70
M  V30 71 1 63 71
M  V30 72 1 64 72
M  V30 73 1 64 73
M  V30 74 1 65 74
M  V30 75 1 65 75
M  V30 76 1 66 76
M  V30 77 1 66 77
M  V30 78 1 67 78
M  V30 79 1 79 80
M  V30 80 1 80 81
M  V30 81 1 81 82
M  V30 82 1 82 83
M  V30 83 1 83 84
M  V30 84 1 84 85
M  V30 85 1 85 86
M  V30 86 1 85 80
M  V30 87 1 80 87
M  V30 88 1 81 88
M  V30 89 1 81 89
M  V30 90 1 82 90
M  V30 91 1 82 91
M  V30 92 1 83 92
M  V30 93 1 83 93
M  V30 94 1 84 94
M  V30 95 1 84 95
M  V30 96 1 85 96
M  V30 97 1 97 98
M  V30 98 1 98 99
M  V30 99 1 99 100
M  V30 100 1 100 101
M  V30 101 1 101 102
M  V30 102 1 102 103
M  V30 103 1 103 104
M  V30 104 1 103 98
M  V30 105 1 98 105
M  V30 106 1 99 106
M  V30 107 1 99 107
M  V30 108 1 100 108
M  V30 109 1 100 109
M  V30 110 1 101 110
M  V30 111 1 101 111
M  V30 112 1 102 112
M  V30 113 1 102 113
M  V30 114 1 103 114
M  V30 115 1 115 116
M  V30 116 1 116 117
M  V30 117 1 117 118
M  V30 118 1 118 119
M  V30 119 1 119 120
M  V30 120 1 120 121
M  V30 121 1 121 122
M  V30 122 1 121 116
M  V30 123 1 116 123
M  V30 124 1 117 124
M  V30 125 1 117 125
M  V30 126 1 118 126
M  V30 127 1 118 127
M  V30 128 1 119 128
M  V30 129 1 119 129
M  V30 130 1 120 130
M  V30 131 1 120 131
M  V30 132 1 121 132
M  V30 133 1 133 134
M  V30 134 1 134 135
M  V30 135 1 135 136
M  V30 136 1 136 137
M  V30 137 1 137 138
M  V30 138 1 138 139
M  V30 139 1 139 140
M  V30 140 1 139 134
M  V30 141 1 134 141
M  V30 142 1 135 142
M  V30 143 1 135 143
M  V30 144 1 136 144
M  V30 145 1 136 145
M  V30 146 1 137 146
M  V30 147 1 137 147
M  V30 148 1 138 148
M  V30 149 1 138 149
M  V30 150 1 139 150
M  V30 151 1 151 152
M  V30 152 1 152 153
M  V30 153 1 153 154
M  V30 154 1 154 155
M  V30 155 1 155 156
M  V30 156 1 156 157
M  V30 157 1 157 158
M  V30 158 1 157 152
M  V30 159 1 152 159
M  V30 160 1 153 160
M  V30 161 1 153 161
M  V30 162 1 154 162
M  V30 163 1 154 163
M  V30 164 1 155 164
M  V30 165 1 155 165
M  V30 166 1 156 166
M  V30 167 1 156 167
M  V30 168 1 157 168
M  V30 169 2 9 133
M  V30 170 2 7 151
M  V30 171 2 8 115
M  V30 172 2 24 61
M  V30 173 2 23 79
M  V30 174 2 22 97
M  V30 175 2 39 104
M  V30 176 2 38 122
M  V30 177 2 37 140
M  V30 178 2 54 68
M  V30 179 2 52 86
M  V30 180 2 53 158
M  V30 END BOND
M  V30 END CTAB
M  END

$$$$
